
Spectre (R) Circuit Simulator
Version 19.1.0.455.isr11 64bit -- 10 Sep 2020
Copyright (C) 1989-2020 Cadence Design Systems, Inc. All rights reserved worldwide. Cadence and Spectre are registered trademarks of Cadence Design Systems, Inc. All others are the property of their respective holders.

Includes RSA BSAFE(R) Cryptographic or Security Protocol Software from RSA Security, Inc.

User: cs199-apt   Host: c111-6.EECS.Berkeley.EDU   HostID: 2080A728   PID: 320896
Memory  available: 58.3637 GB  physical: 66.8658 GB
Linux   : Red Hat Enterprise Linux release 8.10 (Ootpa)
CPU Type: 13th Gen Intel(R) Core(TM) i9-13900
        Socket: Processors [Frequency] (Hyperthreaded Processor)
        0:       0 [2000.0] (  1 ),  1 [2000.0] (),  2 [2000.0] (  3 )
                 3 [2000.0] (),  4 [2000.0] (  5 ),  5 [2000.0] (),  6 [2000.0] (  7 )
                 7 [2000.0] (),  8 [2000.0] (  9 ),  9 [2000.0] (), 10 [2000.0] ( 11 )
                11 [2000.0] (), 12 [2000.0] ( 13 ), 13 [2000.0] (), 14 [1251.5] ( 15 )
                15 [2000.0] (), 16 [2000.0] (), 17 [2000.0] (), 18 [2000.0] (), 19 [2000.0] ()
                20 [2000.0] (), 21 [2000.0] (), 22 [2000.0] (), 23 [2000.0] (), 24 [2000.0] ()
                25 [2000.0] (), 26 [2000.0] (), 27 [2000.0] (), 28 [2000.0] (), 29 [2000.0] ()
                30 [2000.0] (), 31 [2000.0] ()
        
System load averages (1min, 5min, 15min) : 0.4 %, 0.4 %, 0.4 %
Hyperthreading is enabled


Simulating `netlist.scs' on c111-6.EECS.Berkeley.EDU at 3:55:20 PM, Wed Jul 17, 2024 (process id: 320896).
Current working directory: /home/aa/users/cs199-apt/cadence/sky130_virtuoso
Environment variable:
    SPECTRE_DEFAULTS= -E 
Command line:
    /share/instsww/cadence/LIBERATE/tools.lnx86/bin/spectre -64  \
        netlist.scs

Loading /share/instsww/cadence/LIBERATE/tools.lnx86/cmi/lib/64bit/5.0/libinfineon_sh.so ...
Loading /share/instsww/cadence/LIBERATE/tools.lnx86/cmi/lib/64bit/5.0/libphilips_o_sh.so ...
Loading /share/instsww/cadence/LIBERATE/tools.lnx86/cmi/lib/64bit/5.0/libphilips_sh.so ...
Loading /share/instsww/cadence/LIBERATE/tools.lnx86/cmi/lib/64bit/5.0/libsparam_sh.so ...
Loading /share/instsww/cadence/LIBERATE/tools.lnx86/cmi/lib/64bit/5.0/libstmodels_sh.so ...
Reading file:  /home/aa/users/cs199-apt/cadence/sky130_virtuoso/netlist.scs
Reading link:  /share/instsww/cadence/LIBERATE
Reading file:  /share/instsww/cadence/LIBERATE.19.12.294/tools.lnx86/spectre/etc/configs/spectre.cfg
Reading file:  /usr/include/stdc-predef.h
Reading file:  /home/ff/eecs251b/sky130/sky130_cds/sky130_release_0.0.1/models/sky130.lib.spice
Reading file:  /home/ff/eecs251b/sky130/sky130_cds/sky130_release_0.0.1/cells/nfet_01v8/sky130_fd_pr__nfet_01v8__tt.corner.spice
Reading file:  /home/ff/eecs251b/sky130/sky130_cds/sky130_release_0.0.1/cells/nfet_01v8/sky130_fd_pr__nfet_01v8__tt.pm3.spice
Reading file:  /home/ff/eecs251b/sky130/sky130_cds/sky130_release_0.0.1/cells/nfet_01v8_lvt/sky130_fd_pr__nfet_01v8_lvt__tt.corner.spice
Reading file:  /home/ff/eecs251b/sky130/sky130_cds/sky130_release_0.0.1/cells/nfet_01v8_lvt/sky130_fd_pr__nfet_01v8_lvt__tt.pm3.spice
Reading file:  /home/ff/eecs251b/sky130/sky130_cds/sky130_release_0.0.1/cells/pfet_01v8/sky130_fd_pr__pfet_01v8__tt.corner.spice
Reading file:  /home/ff/eecs251b/sky130/sky130_cds/sky130_release_0.0.1/cells/pfet_01v8/sky130_fd_pr__pfet_01v8__tt.pm3.spice
Reading file:  /home/ff/eecs251b/sky130/sky130_cds/sky130_release_0.0.1/cells/nfet_03v3_nvt/sky130_fd_pr__nfet_03v3_nvt__tt.corner.spice
Reading file:  /home/ff/eecs251b/sky130/sky130_cds/sky130_release_0.0.1/cells/nfet_03v3_nvt/sky130_fd_pr__nfet_03v3_nvt.pm3.spice
Reading file:  /home/ff/eecs251b/sky130/sky130_cds/sky130_release_0.0.1/cells/nfet_05v0_nvt/sky130_fd_pr__nfet_05v0_nvt__tt.corner.spice
Reading file:  /home/ff/eecs251b/sky130/sky130_cds/sky130_release_0.0.1/cells/nfet_05v0_nvt/sky130_fd_pr__nfet_05v0_nvt.pm3.spice
Reading file:  /home/ff/eecs251b/sky130/sky130_cds/sky130_release_0.0.1/cells/esd_nfet_01v8/sky130_fd_pr__esd_nfet_01v8__tt.corner.spice
Reading file:  /home/ff/eecs251b/sky130/sky130_cds/sky130_release_0.0.1/cells/esd_nfet_01v8/sky130_fd_pr__esd_nfet_01v8.pm3.spice
Reading file:  /home/ff/eecs251b/sky130/sky130_cds/sky130_release_0.0.1/cells/pfet_01v8_lvt/sky130_fd_pr__pfet_01v8_lvt__tt.corner.spice
Reading file:  /home/ff/eecs251b/sky130/sky130_cds/sky130_release_0.0.1/cells/pfet_01v8_lvt/sky130_fd_pr__pfet_01v8_lvt__tt.pm3.spice
Reading file:  /home/ff/eecs251b/sky130/sky130_cds/sky130_release_0.0.1/cells/pfet_01v8_hvt/sky130_fd_pr__pfet_01v8_hvt__tt.corner.spice
Reading file:  /home/ff/eecs251b/sky130/sky130_cds/sky130_release_0.0.1/cells/pfet_01v8_hvt/sky130_fd_pr__pfet_01v8_hvt__tt.pm3.spice
Reading file:  /home/ff/eecs251b/sky130/sky130_cds/sky130_release_0.0.1/cells/esd_pfet_g5v0d10v5/sky130_fd_pr__esd_pfet_g5v0d10v5__tt.corner.spice
Reading file:  /home/ff/eecs251b/sky130/sky130_cds/sky130_release_0.0.1/cells/esd_pfet_g5v0d10v5/sky130_fd_pr__esd_pfet_g5v0d10v5.pm3.spice
Reading file:  /home/ff/eecs251b/sky130/sky130_cds/sky130_release_0.0.1/cells/pfet_g5v0d10v5/sky130_fd_pr__pfet_g5v0d10v5__tt.corner.spice
Reading file:  /home/ff/eecs251b/sky130/sky130_cds/sky130_release_0.0.1/cells/pfet_g5v0d10v5/sky130_fd_pr__pfet_g5v0d10v5__tt.pm3.spice
Reading file:  /home/ff/eecs251b/sky130/sky130_cds/sky130_release_0.0.1/cells/pfet_g5v0d16v0/sky130_fd_pr__pfet_g5v0d16v0__tt.corner.spice
Reading file:  /home/ff/eecs251b/sky130/sky130_cds/sky130_release_0.0.1/cells/nfet_g5v0d10v5/sky130_fd_pr__nfet_g5v0d10v5__tt.corner.spice
Reading file:  /home/ff/eecs251b/sky130/sky130_cds/sky130_release_0.0.1/cells/nfet_g5v0d10v5/sky130_fd_pr__nfet_g5v0d10v5__tt.pm3.spice
Reading file:  /home/ff/eecs251b/sky130/sky130_cds/sky130_release_0.0.1/cells/nfet_g5v0d16v0/sky130_fd_pr__nfet_g5v0d16v0__tt_discrete.corner.spice
Reading file:  /home/ff/eecs251b/sky130/sky130_cds/sky130_release_0.0.1/cells/nfet_g5v0d16v0/sky130_fd_pr__nfet_g5v0d16v0__subcircuit.pm3.spice
Reading file:  /home/ff/eecs251b/sky130/sky130_cds/sky130_release_0.0.1/cells/nfet_g5v0d16v0/sky130_fd_pr__nfet_g5v0d16v0.pm3.spice
Reading file:  /home/ff/eecs251b/sky130/sky130_cds/sky130_release_0.0.1/cells/esd_nfet_g5v0d10v5/sky130_fd_pr__esd_nfet_g5v0d10v5__tt.corner.spice
Reading file:  /home/ff/eecs251b/sky130/sky130_cds/sky130_release_0.0.1/cells/esd_nfet_g5v0d10v5/sky130_fd_pr__esd_nfet_g5v0d10v5.pm3.spice
Reading file:  /home/ff/eecs251b/sky130/sky130_cds/sky130_release_0.0.1/models/corners/tt/nonfet.spice
Reading file:  /home/ff/eecs251b/sky130/sky130_cds/sky130_release_0.0.1/cells/nfet_01v8/sky130_fd_pr__nfet_01v8__mismatch.corner.spice
Reading file:  /home/ff/eecs251b/sky130/sky130_cds/sky130_release_0.0.1/cells/pfet_01v8/sky130_fd_pr__pfet_01v8__mismatch.corner.spice
Reading file:  /home/ff/eecs251b/sky130/sky130_cds/sky130_release_0.0.1/cells/nfet_01v8_lvt/sky130_fd_pr__nfet_01v8_lvt__mismatch.corner.spice
Reading file:  /home/ff/eecs251b/sky130/sky130_cds/sky130_release_0.0.1/cells/pfet_01v8_lvt/sky130_fd_pr__pfet_01v8_lvt__mismatch.corner.spice
Reading file:  /home/ff/eecs251b/sky130/sky130_cds/sky130_release_0.0.1/cells/pfet_01v8_hvt/sky130_fd_pr__pfet_01v8_hvt__mismatch.corner.spice
Reading file:  /home/ff/eecs251b/sky130/sky130_cds/sky130_release_0.0.1/cells/nfet_g5v0d10v5/sky130_fd_pr__nfet_g5v0d10v5__mismatch.corner.spice
Reading file:  /home/ff/eecs251b/sky130/sky130_cds/sky130_release_0.0.1/cells/pfet_g5v0d10v5/sky130_fd_pr__pfet_g5v0d10v5__mismatch.corner.spice
Reading file:  /home/ff/eecs251b/sky130/sky130_cds/sky130_release_0.0.1/cells/nfet_05v0_nvt/sky130_fd_pr__nfet_05v0_nvt__mismatch.corner.spice
Reading file:  /home/ff/eecs251b/sky130/sky130_cds/sky130_release_0.0.1/cells/nfet_03v3_nvt/sky130_fd_pr__nfet_03v3_nvt__mismatch.corner.spice
Reading file:  /home/ff/eecs251b/sky130/sky130_cds/sky130_release_0.0.1/models/r+c/res_typical__cap_typical.spice
Reading file:  /home/ff/eecs251b/sky130/sky130_cds/sky130_release_0.0.1/models/sky130_fd_pr__model__r+c.model.spice
Reading file:  /home/ff/eecs251b/sky130/sky130_cds/sky130_release_0.0.1/models/r+c.mrp1monte.spice
Reading file:  /home/ff/eecs251b/sky130/sky130_cds/sky130_release_0.0.1/cells/res_generic_nd/sky130_fd_pr__res_generic_nd.model.spice
Reading file:  /home/ff/eecs251b/sky130/sky130_cds/sky130_release_0.0.1/cells/res_generic_pd/sky130_fd_pr__res_generic_pd.model.spice
Reading file:  /home/ff/eecs251b/sky130/sky130_cds/sky130_release_0.0.1/models/parameters/typical.spice
Reading file:  /home/ff/eecs251b/sky130/sky130_cds/sky130_release_0.0.1/models/r+c/res_typical__cap_typical__lin.spice
Reading file:  /home/ff/eecs251b/sky130/sky130_cds/sky130_release_0.0.1/models/capacitors/sky130_fd_pr__model__cap_vpp.model.spice
Reading file:  /home/ff/eecs251b/sky130/sky130_cds/sky130_release_0.0.1/cells/cap_vpp_08p6x07p8_l1m1m2_noshield/sky130_fd_pr__cap_vpp_08p6x07p8_l1m1m2_noshield.model.spice
Reading file:  /home/ff/eecs251b/sky130/sky130_cds/sky130_release_0.0.1/cells/cap_vpp_04p4x04p6_l1m1m2_noshield/sky130_fd_pr__cap_vpp_04p4x04p6_l1m1m2_noshield.model.spice
Reading file:  /home/ff/eecs251b/sky130/sky130_cds/sky130_release_0.0.1/cells/cap_vpp_11p5x11p7_l1m1m2_noshield/sky130_fd_pr__cap_vpp_11p5x11p7_l1m1m2_noshield.model.spice
Reading file:  /home/ff/eecs251b/sky130/sky130_cds/sky130_release_0.0.1/cells/cap_vpp_01p8x01p8_m1m2_noshield/sky130_fd_pr__cap_vpp_01p8x01p8_m1m2_noshield.model.spice
Reading file:  /home/ff/eecs251b/sky130/sky130_cds/sky130_release_0.0.1/cells/cap_vpp_08p6x07p8_m1m2_shieldl1/sky130_fd_pr__cap_vpp_08p6x07p8_m1m2_shieldl1.model.spice
Reading file:  /home/ff/eecs251b/sky130/sky130_cds/sky130_release_0.0.1/cells/cap_vpp_04p4x04p6_m1m2_shieldl1/sky130_fd_pr__cap_vpp_04p4x04p6_m1m2_shieldl1.model.spice
Reading file:  /home/ff/eecs251b/sky130/sky130_cds/sky130_release_0.0.1/cells/cap_vpp_11p5x11p7_m1m2_shieldl1/sky130_fd_pr__cap_vpp_11p5x11p7_m1m2_shieldl1.model.spice
Reading file:  /home/ff/eecs251b/sky130/sky130_cds/sky130_release_0.0.1/cells/cap_vpp_08p6x07p8_l1m1m2_shieldpo_floatm3/sky130_fd_pr__cap_vpp_08p6x07p8_l1m1m2_shieldpo_floatm3.model.spice
Reading file:  /home/ff/eecs251b/sky130/sky130_cds/sky130_release_0.0.1/cells/cap_vpp_04p4x04p6_l1m1m2_shieldpo_floatm3/sky130_fd_pr__cap_vpp_04p4x04p6_l1m1m2_shieldpo_floatm3.model.spice
Reading file:  /home/ff/eecs251b/sky130/sky130_cds/sky130_release_0.0.1/cells/cap_vpp_11p5x11p7_l1m1m2_shieldpom3/sky130_fd_pr__cap_vpp_11p5x11p7_l1m1m2_shieldpom3.model.spice
Reading file:  /home/ff/eecs251b/sky130/sky130_cds/sky130_release_0.0.1/cells/cap_vpp_03p9x03p9_m1m2_shieldl1_floatm3/sky130_fd_pr__cap_vpp_03p9x03p9_m1m2_shieldl1_floatm3.model.spice
Reading file:  /home/ff/eecs251b/sky130/sky130_cds/sky130_release_0.0.1/cells/cap_vpp_04p4x04p6_l1m1m2_noshield/sky130_fd_pr__cap_vpp_04p4x04p6_l1m1m2_noshield_o1.model.spice
Reading file:  /home/ff/eecs251b/sky130/sky130_cds/sky130_release_0.0.1/cells/cap_vpp_08p6x07p8_m1m2_noshield/sky130_fd_pr__cap_vpp_08p6x07p8_m1m2_noshield.model.spice
Reading file:  /home/ff/eecs251b/sky130/sky130_cds/sky130_release_0.0.1/cells/cap_vpp_04p4x04p6_m1m2_noshield/sky130_fd_pr__cap_vpp_04p4x04p6_m1m2_noshield_o2.model.spice
Reading file:  /home/ff/eecs251b/sky130/sky130_cds/sky130_release_0.0.1/cells/cap_vpp_02p4x04p6_m1m2_noshield/sky130_fd_pr__cap_vpp_02p4x04p6_m1m2_noshield.model.spice
Reading file:  /home/ff/eecs251b/sky130/sky130_cds/sky130_release_0.0.1/cells/cap_vpp_04p4x04p6_m1m2_noshield/sky130_fd_pr__cap_vpp_04p4x04p6_m1m2_noshield.model.spice
Reading file:  /home/ff/eecs251b/sky130/sky130_cds/sky130_release_0.0.1/cells/cap_vpp_11p5x11p7_m1m2_noshield/sky130_fd_pr__cap_vpp_11p5x11p7_m1m2_noshield.model.spice
Reading file:  /home/ff/eecs251b/sky130/sky130_cds/sky130_release_0.0.1/cells/npn_05v5/sky130_fd_pr__npn_05v5__t.corner.spice
Reading file:  /home/ff/eecs251b/sky130/sky130_cds/sky130_release_0.0.1/cells/npn_05v5/sky130_fd_pr__npn_05v5_W1p00L1p00.model.spice
Reading file:  /home/ff/eecs251b/sky130/sky130_cds/sky130_release_0.0.1/cells/npn_05v5/sky130_fd_pr__npn_05v5_W1p00L2p00.model.spice
Reading file:  /home/ff/eecs251b/sky130/sky130_cds/sky130_release_0.0.1/cells/npn_11v0/sky130_fd_pr__npn_11v0_W1p00L1p00.model.spice
Reading file:  /home/ff/eecs251b/sky130/sky130_cds/sky130_release_0.0.1/cells/pnp_05v5/sky130_fd_pr__pnp_05v5_W3p40L3p40.model.spice
Reading file:  /home/ff/eecs251b/sky130/sky130_cds/sky130_release_0.0.1/models/corners/tt/specialized_cells.spice
Reading file:  /home/ff/eecs251b/sky130/sky130_cds/sky130_release_0.0.1/cells/special_nfet_latch/sky130_fd_pr__special_nfet_latch__mismatch.corner.spice
Reading file:  /home/ff/eecs251b/sky130/sky130_cds/sky130_release_0.0.1/cells/special_nfet_pass/sky130_fd_pr__special_nfet_pass__mismatch.corner.spice
Reading file:  /home/ff/eecs251b/sky130/sky130_cds/sky130_release_0.0.1/cells/special_nfet_pass_flash/sky130_fd_pr__special_nfet_pass_flash__mismatch.corner.spice
Reading file:  /home/ff/eecs251b/sky130/sky130_cds/sky130_release_0.0.1/cells/special_pfet_pass/sky130_fd_pr__special_pfet_pass__mismatch.corner.spice
Reading file:  /home/ff/eecs251b/sky130/sky130_cds/sky130_release_0.0.1/cells/special_nfet_pass_lvt/sky130_fd_pr__special_nfet_pass_lvt__tt.corner.spice
Reading file:  /home/ff/eecs251b/sky130/sky130_cds/sky130_release_0.0.1/cells/special_nfet_pass_lvt/sky130_fd_pr__special_nfet_pass_lvt.pm3.spice
Reading file:  /home/ff/eecs251b/sky130/sky130_cds/sky130_release_0.0.1/models/all.spice
Reading file:  /home/ff/eecs251b/sky130/sky130_cds/sky130_release_0.0.1/models/parameters/lod.spice
Reading file:  /home/ff/eecs251b/sky130/sky130_cds/sky130_release_0.0.1/models/parasitics/sky130_fd_pr__model__parasitic__diode_ps2nw.model.spice
Reading file:  /home/ff/eecs251b/sky130/sky130_cds/sky130_release_0.0.1/cells/diode_pw2nd_05v5/sky130_fd_pr__diode_pw2nd_05v5.model.spice
Reading file:  /home/ff/eecs251b/sky130/sky130_cds/sky130_release_0.0.1/cells/diode_pd2nw_05v5/sky130_fd_pr__diode_pd2nw_05v5.model.spice
Reading file:  /home/ff/eecs251b/sky130/sky130_cds/sky130_release_0.0.1/cells/diode_pd2nw_05v5_hvt/sky130_fd_pr__diode_pd2nw_05v5_hvt.model.spice
Reading file:  /home/ff/eecs251b/sky130/sky130_cds/sky130_release_0.0.1/cells/diode_pw2nd_11v0/sky130_fd_pr__diode_pw2nd_11v0.model.spice
Reading file:  /home/ff/eecs251b/sky130/sky130_cds/sky130_release_0.0.1/cells/diode_pd2nw_11v0/sky130_fd_pr__diode_pd2nw_11v0.model.spice
Reading file:  /home/ff/eecs251b/sky130/sky130_cds/sky130_release_0.0.1/cells/diode_pw2nd_05v5_nvt/sky130_fd_pr__diode_pw2nd_05v5_nvt.model.spice
Reading file:  /home/ff/eecs251b/sky130/sky130_cds/sky130_release_0.0.1/cells/diode_pw2nd_05v5_lvt/sky130_fd_pr__diode_pw2nd_05v5_lvt.model.spice
Reading file:  /home/ff/eecs251b/sky130/sky130_cds/sky130_release_0.0.1/cells/diode_pd2nw_05v5_lvt/sky130_fd_pr__diode_pd2nw_05v5_lvt.model.spice
Reading file:  /home/ff/eecs251b/sky130/sky130_cds/sky130_release_0.0.1/models/parasitics/sky130_fd_pr__model__parasitic__diode_pw2dn.model.spice
Reading file:  /home/ff/eecs251b/sky130/sky130_cds/sky130_release_0.0.1/models/parasitics/sky130_fd_pr__model__parasitic__diode_ps2dn.model.spice
Reading file:  /home/ff/eecs251b/sky130/sky130_cds/sky130_release_0.0.1/cells/pfet_g5v0d16v0/sky130_fd_pr__pfet_g5v0d16v0__parasitic__diode_pw2dn.model.spice
Reading file:  /home/ff/eecs251b/sky130/sky130_cds/sky130_release_0.0.1/cells/pnp_05v5/sky130_fd_pr__pnp_05v5_W0p68L0p68.model.spice
Reading file:  /home/ff/eecs251b/sky130/sky130_cds/sky130_release_0.0.1/cells/pfet_g5v0d16v0/sky130_fd_pr__pfet_g5v0d16v0.pm3.spice
Reading file:  /home/ff/eecs251b/sky130/sky130_cds/sky130_release_0.0.1/cells/pfet_g5v0d16v0/sky130_fd_pr__pfet_g5v0d16v0__subcircuit.pm3.spice
Reading file:  /home/ff/eecs251b/sky130/sky130_cds/sky130_release_0.0.1/cells/cap_var_lvt/sky130_fd_pr__cap_var_lvt.model.spice
Reading file:  /home/ff/eecs251b/sky130/sky130_cds/sky130_release_0.0.1/cells/cap_vpp_08p6x07p8_l1m1m2_noshield/sky130_fd_pr__cap_vpp_08p6x07p8_l1m1m2_noshield_o1.model.spice
Reading file:  /home/ff/eecs251b/sky130/sky130_cds/sky130_release_0.0.1/models/capacitors/sky130_fd_pr__model__cap_mim.model.spice
Reading file:  /home/ff/eecs251b/sky130/sky130_cds/sky130_release_0.0.1/cells/cap_mim_m3/sky130_fd_pr__cap_mim_m3_1.model.spice
Reading file:  /home/ff/eecs251b/sky130/sky130_cds/sky130_release_0.0.1/cells/cap_mim_m3/sky130_fd_pr__cap_mim_m3_2.model.spice
Reading file:  /home/ff/eecs251b/sky130/sky130_cds/sky130_release_0.0.1/models/capacitors/sky130_fd_pr__model__cap_vpp_only_mos.model.spice
Reading file:  /home/ff/eecs251b/sky130/sky130_cds/sky130_release_0.0.1/cells/cap_vpp_04p4x04p6_m1m2_noshield/sky130_fd_pr__cap_vpp_04p4x04p6_m1m2_noshield_o1nhv.model.spice
Reading file:  /home/ff/eecs251b/sky130/sky130_cds/sky130_release_0.0.1/cells/cap_vpp_04p4x04p6_m1m2_noshield/sky130_fd_pr__cap_vpp_04p4x04p6_m1m2_noshield_o1phv.model.spice
Reading file:  /home/ff/eecs251b/sky130/sky130_cds/sky130_release_0.0.1/models/sonos_p/begin_of_life/mm.spice
Reading file:  /home/ff/eecs251b/sky130/sky130_cds/sky130_release_0.0.1/models/sonos_e/begin_of_life/mm.spice
Reading file:  /home/ff/eecs251b/sky130/sky130_cds/sky130_release_0.0.1/models/head.spice
Reading file:  /home/ff/eecs251b/sky130/sky130_cds/sky130_release_0.0.1/cells/special_nfet_pass/sky130_fd_pr__special_nfet_pass.pm3.spice
Reading file:  /home/ff/eecs251b/sky130/sky130_cds/sky130_release_0.0.1/cells/special_nfet_latch/sky130_fd_pr__special_nfet_latch.pm3.spice
Reading file:  /home/ff/eecs251b/sky130/sky130_cds/sky130_release_0.0.1/cells/special_pfet_pass/sky130_fd_pr__special_pfet_pass.pm3.spice
Reading file:  /home/ff/eecs251b/sky130/sky130_cds/sky130_release_0.0.1/cells/special_nfet_pass_flash/sky130_fd_pr__special_nfet_pass_flash.pm3.spice
Reading file:  /home/ff/eecs251b/sky130/sky130_cds/sky130_release_0.0.1/models/capacitors/sky130_fd_pr__model__cap_vpp_only_pq.model.spice
Reading file:  /home/ff/eecs251b/sky130/sky130_cds/sky130_release_0.0.1/cells/cap_vpp_08p6x07p8_m1m2m3_shieldl1/sky130_fd_pr__cap_vpp_08p6x07p8_m1m2m3_shieldl1.model.spice
Reading file:  /home/ff/eecs251b/sky130/sky130_cds/sky130_release_0.0.1/cells/cap_vpp_04p4x04p6_m1m2m3_shieldl1/sky130_fd_pr__cap_vpp_04p4x04p6_m1m2m3_shieldl1.model.spice
Reading file:  /home/ff/eecs251b/sky130/sky130_cds/sky130_release_0.0.1/cells/cap_vpp_11p5x11p7_m1m2m3_shieldl1/sky130_fd_pr__cap_vpp_11p5x11p7_m1m2m3_shieldl1.model.spice
Reading file:  /home/ff/eecs251b/sky130/sky130_cds/sky130_release_0.0.1/cells/cap_vpp_11p5x11p7_l1m1m2m3_shieldm4/sky130_fd_pr__cap_vpp_11p5x11p7_l1m1m2m3_shieldm4.model.spice
Reading file:  /home/ff/eecs251b/sky130/sky130_cds/sky130_release_0.0.1/cells/cap_vpp_11p5x11p7_l1m1m2m3_shieldpom4/sky130_fd_pr__cap_vpp_11p5x11p7_l1m1m2m3_shieldpom4.model.spice
Reading file:  /home/ff/eecs251b/sky130/sky130_cds/sky130_release_0.0.1/cells/cap_vpp_06p8x06p1_l1m1m2m3_shieldpom4/sky130_fd_pr__cap_vpp_06p8x06p1_l1m1m2m3_shieldpom4.model.spice
Reading file:  /home/ff/eecs251b/sky130/sky130_cds/sky130_release_0.0.1/cells/cap_vpp_06p8x06p1_m1m2m3_shieldl1m4/sky130_fd_pr__cap_vpp_06p8x06p1_m1m2m3_shieldl1m4.model.spice
Reading file:  /home/ff/eecs251b/sky130/sky130_cds/sky130_release_0.0.1/models/capacitors/sky130_fd_pr__model__cap_vpp_only_p.model.spice
Reading file:  /home/ff/eecs251b/sky130/sky130_cds/sky130_release_0.0.1/cells/cap_vpp_11p5x11p7_l1m1m2m3m4_shieldm5/sky130_fd_pr__cap_vpp_11p5x11p7_l1m1m2m3m4_shieldm5.model.spice
Reading file:  /home/ff/eecs251b/sky130/sky130_cds/sky130_release_0.0.1/cells/cap_vpp_11p5x11p7_l1m1m2m3m4_shieldpom5/sky130_fd_pr__cap_vpp_11p5x11p7_l1m1m2m3m4_shieldpom5.model.spice
Reading file:  /home/ff/eecs251b/sky130/sky130_cds/sky130_release_0.0.1/cells/cap_vpp_11p5x11p7_m1m2m3m4_shieldl1m5/sky130_fd_pr__cap_vpp_11p5x11p7_m1m2m3m4_shieldl1m5.model.spice
Reading file:  /home/ff/eecs251b/sky130/sky130_cds/sky130_release_0.0.1/cells/cap_vpp_11p5x11p7_m1m4_noshield/sky130_fd_pr__cap_vpp_11p5x11p7_m1m4_noshield.model.spice
Reading file:  /home/ff/eecs251b/sky130/sky130_cds/sky130_release_0.0.1/cells/cap_vpp_11p5x11p7_m1m2m3m4_shieldm5/sky130_fd_pr__cap_vpp_11p5x11p7_m1m2m3m4_shieldm5.model.spice
Reading file:  /home/ff/eecs251b/sky130/sky130_cds/sky130_release_0.0.1/cells/cap_vpp_08p6x07p8_m1m2m3_shieldl1m5_floatm4/sky130_fd_pr__cap_vpp_08p6x07p8_m1m2m3_shieldl1m5_floatm4.model.spice
Reading file:  /home/ff/eecs251b/sky130/sky130_cds/sky130_release_0.0.1/cells/cap_vpp_04p4x04p6_m1m2m3_shieldl1m5_floatm4/sky130_fd_pr__cap_vpp_04p4x04p6_m1m2m3_shieldl1m5_floatm4.model.spice
Reading file:  /home/ff/eecs251b/sky130/sky130_cds/sky130_release_0.0.1/cells/cap_vpp_11p5x11p7_m1m2m3_shieldl1m5_floatm4/sky130_fd_pr__cap_vpp_11p5x11p7_m1m2m3_shieldl1m5_floatm4.model.spice
Reading file:  /home/ff/eecs251b/sky130/sky130_cds/sky130_release_0.0.1/cells/cap_vpp_11p3x11p8_l1m1m2m3m4_shieldm5/sky130_fd_pr__cap_vpp_11p3x11p8_l1m1m2m3m4_shieldm5_nhv.model.spice
Reading file:  /home/ff/eecs251b/sky130/sky130_cds/sky130_release_0.0.1/cells/cap_vpp_11p3x11p8_l1m1m2m3m4_shieldm5/sky130_fd_pr__cap_vpp_11p3x11p8_l1m1m2m3m4_shieldm5_nhv__base.model.spice
Reading file:  /home/ff/eecs251b/sky130/sky130_cds/sky130_release_0.0.1/cells/cap_vpp_11p5x11p7_l1m1m2m3m4_shieldpom5/sky130_fd_pr__cap_vpp_11p5x11p7_l1m1m2m3m4_shieldpom5_x.model.spice
Reading file:  /home/ff/eecs251b/sky130/sky130_cds/sky130_release_0.0.1/cells/cap_vpp_02p9x06p1_m1m2m3m4_shieldl1/sky130_fd_pr__cap_vpp_02p9x06p1_m1m2m3m4_shieldl1_fingercap2.model.spice
Reading file:  /home/ff/eecs251b/sky130/sky130_cds/sky130_release_0.0.1/cells/cap_vpp_02p7x11p1_m1m2m3m4_shieldl1/sky130_fd_pr__cap_vpp_02p7x11p1_m1m2m3m4_shieldl1_fingercap.model.spice
Reading file:  /home/ff/eecs251b/sky130/sky130_cds/sky130_release_0.0.1/cells/cap_vpp_02p7x21p1_m1m2m3m4_shieldl1/sky130_fd_pr__cap_vpp_02p7x21p1_m1m2m3m4_shieldl1_fingercap.model.spice
Reading file:  /home/ff/eecs251b/sky130/sky130_cds/sky130_release_0.0.1/cells/cap_vpp_02p7x41p1_m1m2m3m4_shieldl1/sky130_fd_pr__cap_vpp_02p7x41p1_m1m2m3m4_shieldl1_fingercap.model.spice
Reading file:  /home/ff/eecs251b/sky130/sky130_cds/sky130_release_0.0.1/cells/cap_vpp_02p7x06p1_m1m2m3m4_shieldl1/sky130_fd_pr__cap_vpp_02p7x06p1_m1m2m3m4_shieldl1_fingercap.model.spice
Reading file:  /home/ff/eecs251b/sky130/sky130_cds/sky130_release_0.0.1/cells/cap_vpp_11p3x11p3_m1m2m3m4_shieldl1/sky130_fd_pr__cap_vpp_11p3x11p3_m1m2m3m4_shieldl1_wafflecap.model.spice
Reading file:  /home/ff/eecs251b/sky130/sky130_cds/sky130_release_0.0.1/cells/cap_vpp_05p9x05p9_m1m2m3m4_shieldl1/sky130_fd_pr__cap_vpp_05p9x05p9_m1m2m3m4_shieldl1_wafflecap.model.spice
Reading file:  /home/ff/eecs251b/sky130/sky130_cds/sky130_release_0.0.1/cells/cap_vpp_44p7x23p1_pol1m1m2m3m4m5_noshield/sky130_fd_pr__cap_vpp_44p7x23p1_pol1m1m2m3m4m5_noshield.model.spice
Reading file:  /home/ff/eecs251b/sky130/sky130_cds/sky130_release_0.0.1/models/sky130_fd_pr__model__linear.model.spice
Reading file:  /home/ff/eecs251b/sky130/sky130_cds/sky130_release_0.0.1/models/parasitics/sky130_fd_pr__model__parasitic__res_po.model.spice
Reading file:  /home/ff/eecs251b/sky130/sky130_cds/sky130_release_0.0.1/cells/res_xhigh_po/sky130_fd_pr__res_xhigh_po.model.spice
Reading file:  /home/ff/eecs251b/sky130/sky130_cds/sky130_release_0.0.1/cells/res_high_po/sky130_fd_pr__res_high_po.model.spice
Reading file:  /home/ff/eecs251b/sky130/sky130_cds/sky130_release_0.0.1/cells/res_xhigh_po/sky130_fd_pr__res_xhigh_po_0p35.model.spice
Reading file:  /home/ff/eecs251b/sky130/sky130_cds/sky130_release_0.0.1/cells/res_xhigh_po/sky130_fd_pr__res_xhigh_po_0p69.model.spice
Reading file:  /home/ff/eecs251b/sky130/sky130_cds/sky130_release_0.0.1/cells/res_xhigh_po/sky130_fd_pr__res_xhigh_po_1p41.model.spice
Reading file:  /home/ff/eecs251b/sky130/sky130_cds/sky130_release_0.0.1/cells/res_xhigh_po/sky130_fd_pr__res_xhigh_po_2p85.model.spice
Reading file:  /home/ff/eecs251b/sky130/sky130_cds/sky130_release_0.0.1/cells/res_xhigh_po/sky130_fd_pr__res_xhigh_po_5p73.model.spice
Reading file:  /home/ff/eecs251b/sky130/sky130_cds/sky130_release_0.0.1/cells/res_xhigh_po/sky130_fd_pr__res_xhigh_po__base.model.spice
Reading file:  /home/ff/eecs251b/sky130/sky130_cds/sky130_release_0.0.1/cells/res_high_po/sky130_fd_pr__res_high_po_0p35.model.spice
Reading file:  /home/ff/eecs251b/sky130/sky130_cds/sky130_release_0.0.1/cells/res_high_po/sky130_fd_pr__res_high_po_0p69.model.spice
Reading file:  /home/ff/eecs251b/sky130/sky130_cds/sky130_release_0.0.1/cells/res_high_po/sky130_fd_pr__res_high_po_1p41.model.spice
Reading file:  /home/ff/eecs251b/sky130/sky130_cds/sky130_release_0.0.1/cells/res_high_po/sky130_fd_pr__res_high_po_2p85.model.spice
Reading file:  /home/ff/eecs251b/sky130/sky130_cds/sky130_release_0.0.1/cells/res_high_po/sky130_fd_pr__res_high_po_5p73.model.spice
Reading file:  /home/ff/eecs251b/sky130/sky130_cds/sky130_release_0.0.1/cells/rf_nfet_g5v0d10v5/sky130_fd_pr__rf_nfet_g5v0d10v5.pm3.spice
Reading file:  /home/ff/eecs251b/sky130/sky130_cds/sky130_release_0.0.1/cells/rf_nfet_01v8_lvt/sky130_fd_pr__rf_nfet_01v8_lvt.pm3.spice
Reading file:  /home/ff/eecs251b/sky130/sky130_cds/sky130_release_0.0.1/cells/rf_nfet_01v8/sky130_fd_pr__rf_nfet_01v8.pm3.spice
Reading file:  /home/ff/eecs251b/sky130/sky130_cds/sky130_release_0.0.1/cells/rf_pfet_01v8/sky130_fd_pr__rf_pfet_01v8.pm3.spice
Reading file:  /home/ff/eecs251b/sky130/sky130_cds/sky130_release_0.0.1/cells/rf_pfet_01v8_mvt/sky130_fd_pr__rf_pfet_01v8_mvt.pm3.spice
Reading file:  /home/ff/eecs251b/sky130/sky130_cds/sky130_release_0.0.1/models/corners/tt/rf.spice
Reading file:  /home/ff/eecs251b/sky130/sky130_cds/sky130_release_0.0.1/cells/rf_nfet_01v8/sky130_fd_pr__rf_nfet_01v8_b__tt.corner.spice
Reading file:  /home/ff/eecs251b/sky130/sky130_cds/sky130_release_0.0.1/cells/rf_nfet_01v8/sky130_fd_pr__rf_nfet_01v8_b.pm3.spice
Reading file:  /home/ff/eecs251b/sky130/sky130_cds/sky130_release_0.0.1/cells/rf_nfet_01v8_lvt/sky130_fd_pr__rf_nfet_01v8_lvt_b__tt.corner.spice
Reading file:  /home/ff/eecs251b/sky130/sky130_cds/sky130_release_0.0.1/cells/rf_nfet_01v8_lvt/sky130_fd_pr__rf_nfet_01v8_lvt_b.pm3.spice
Reading file:  /home/ff/eecs251b/sky130/sky130_cds/sky130_release_0.0.1/cells/rf_nfet_g5v0d10v5/sky130_fd_pr__rf_nfet_g5v0d10v5_b__tt.corner.spice
Reading file:  /home/ff/eecs251b/sky130/sky130_cds/sky130_release_0.0.1/cells/rf_nfet_g5v0d10v5/sky130_fd_pr__rf_nfet_g5v0d10v5_b.pm3.spice
Reading file:  /home/ff/eecs251b/sky130/sky130_cds/sky130_release_0.0.1/cells/rf_pfet_01v8/sky130_fd_pr__rf_pfet_01v8_b__tt.corner.spice
Reading file:  /home/ff/eecs251b/sky130/sky130_cds/sky130_release_0.0.1/cells/rf_pfet_01v8/sky130_fd_pr__rf_pfet_01v8_b.pm3.spice
Reading file:  /home/ff/eecs251b/sky130/sky130_cds/sky130_release_0.0.1/cells/rf_nfet_01v8/sky130_fd_pr__rf_nfet_01v8__mismatch.corner.spice
Reading file:  /home/ff/eecs251b/sky130/sky130_cds/sky130_release_0.0.1/cells/rf_nfet_01v8_lvt/sky130_fd_pr__rf_nfet_01v8_lvt__mismatch.corner.spice
Reading file:  /home/ff/eecs251b/sky130/sky130_cds/sky130_release_0.0.1/cells/rf_nfet_g5v0d10v5/sky130_fd_pr__rf_nfet_g5v0d10v5__mismatch.corner.spice
Reading file:  /home/ff/eecs251b/sky130/sky130_cds/sky130_release_0.0.1/cells/rf_pfet_01v8/sky130_fd_pr__rf_pfet_01v8__mismatch.corner.spice
Reading file:  /home/ff/eecs251b/sky130/sky130_cds/sky130_release_0.0.1/cells/rf_pfet_01v8_mvt/sky130_fd_pr__rf_pfet_01v8_mvt__tt_discrete.corner.spice
Reading file:  /home/ff/eecs251b/sky130/sky130_cds/sky130_release_0.0.1/cells/pfet_01v8_mvt/sky130_fd_pr__pfet_01v8_mvt.pm3.spice
Reading file:  /home/ff/eecs251b/sky130/sky130_cds/sky130_release_0.0.1/cells/rf_pfet_01v8_mvt/sky130_fd_pr__rf_pfet_01v8_mvt__mismatch.corner.spice
Reading file:  /home/ff/eecs251b/sky130/sky130_cds/sky130_release_0.0.1/cells/pfet_20v0/sky130_fd_pr__pfet_20v0__tt_discrete.corner.spice
Reading file:  /home/ff/eecs251b/sky130/sky130_cds/sky130_release_0.0.1/cells/pfet_20v0/sky130_fd_pr__pfet_20v0__subcircuit.pm3.spice
Reading file:  /home/ff/eecs251b/sky130/sky130_cds/sky130_release_0.0.1/cells/pfet_20v0/sky130_fd_pr__pfet_20v0__parasitic__diode_pw2dn.model.spice
Reading file:  /home/ff/eecs251b/sky130/sky130_cds/sky130_release_0.0.1/cells/nfet_20v0/sky130_fd_pr__nfet_20v0__tt_discrete.corner.spice
Reading file:  /home/ff/eecs251b/sky130/sky130_cds/sky130_release_0.0.1/cells/nfet_20v0/sky130_fd_pr__nfet_20v0__subcircuit.pm3.spice
Reading file:  /home/ff/eecs251b/sky130/sky130_cds/sky130_release_0.0.1/models/parasitics/sky130_fd_pr__model__parasitic__diode_pw2dn__extended_drain.model.spice
Reading file:  /home/ff/eecs251b/sky130/sky130_cds/sky130_release_0.0.1/cells/diode_pw2nd_05v5/sky130_fd_pr__diode_pw2nd_05v5__extended_drain.model.spice
Reading file:  /home/ff/eecs251b/sky130/sky130_cds/sky130_release_0.0.1/cells/nfet_20v0_iso/sky130_fd_pr__nfet_20v0_iso__subcircuit.pm3.spice
Reading file:  /home/ff/eecs251b/sky130/sky130_cds/sky130_release_0.0.1/models/parasitics/sky130_fd_pr__model__parasitic__diode_ps2dn__extended_drain.model.spice
Reading file:  /home/ff/eecs251b/sky130/sky130_cds/sky130_release_0.0.1/cells/nfet_20v0_reverse_iso/sky130_fd_pr__nfet_20v0_reverse_iso__subcircuit.pm3.spice
Reading file:  /home/ff/eecs251b/sky130/sky130_cds/sky130_release_0.0.1/cells/nfet_20v0_zvt/sky130_fd_pr__nfet_20v0_zvt__tt_discrete.corner.spice
Reading file:  /home/ff/eecs251b/sky130/sky130_cds/sky130_release_0.0.1/cells/nfet_20v0_zvt/sky130_fd_pr__nfet_20v0_zvt__subcircuit.pm3.spice
Reading file:  /home/ff/eecs251b/sky130/sky130_cds/sky130_release_0.0.1/cells/nfet_20v0_zvt/sky130_fd_pr__nfet_20v0_zvt__parasitic__diode_ps2dn__extended_drain.model.spice
Reading file:  /home/ff/eecs251b/sky130/sky130_cds/sky130_release_0.0.1/cells/nfet_20v0_nvt/sky130_fd_pr__nfet_20v0_nvt__tt_discrete.corner.spice
Reading file:  /home/ff/eecs251b/sky130/sky130_cds/sky130_release_0.0.1/cells/nfet_20v0_nvt/sky130_fd_pr__nfet_20v0_nvt__subcircuit.pm3.spice
Reading file:  /home/ff/eecs251b/sky130/sky130_cds/sky130_release_0.0.1/cells/nfet_20v0_nvt/sky130_fd_pr__nfet_20v0_nvt__parasitic__diode_ps2dn.model.spice
Time for NDB Parsing: CPU = 527.651 ms, elapsed = 2.76241 s.
Time accumulated: CPU = 625.859 ms, elapsed = 2.76242 s.
Peak resident memory used = 126 Mbytes.

Time for Elaboration: CPU = 41.772 ms, elapsed = 88.12 ms.
Time accumulated: CPU = 667.801 ms, elapsed = 2.8507 s.
Peak resident memory used = 140 Mbytes.


Notice from spectre in `sky130_fd_pr__pfet_01v8':`xinst0.xinst0.xinst0.xinst0', in `pmos_tile_w1000_l150_nf2':`xinst0.xinst0.xinst0', in `strong_arm_half':`xinst0.xinst0', in `strong_arm':`xinst0', during hierarchy flattening.
    xinst0.xinst0.xinst0.xinst0.msky130_fd_pr__pfet_01v8: Terminals are not distinct.
Notice from spectre in `sky130_fd_pr__pfet_01v8':`xinst0.xinst0.xinst0.xinst1', in `pmos_tile_w1000_l150_nf2':`xinst0.xinst0.xinst0', in `strong_arm_half':`xinst0.xinst0', in `strong_arm':`xinst0', during hierarchy flattening.
    xinst0.xinst0.xinst0.xinst1.msky130_fd_pr__pfet_01v8: Terminals are not distinct.
Notice from spectre in `sky130_fd_pr__pfet_01v8':`xinst0.xinst0.xinst5.xinst0', in `pmos_tile_w1000_l150_nf2':`xinst0.xinst0.xinst5', in `strong_arm_half':`xinst0.xinst0', in `strong_arm':`xinst0', during hierarchy flattening.
    xinst0.xinst0.xinst5.xinst0.msky130_fd_pr__pfet_01v8: Terminals are not distinct.
Notice from spectre in `sky130_fd_pr__pfet_01v8':`xinst0.xinst0.xinst5.xinst1', in `pmos_tile_w1000_l150_nf2':`xinst0.xinst0.xinst5', in `strong_arm_half':`xinst0.xinst0', in `strong_arm':`xinst0', during hierarchy flattening.
    xinst0.xinst0.xinst5.xinst1.msky130_fd_pr__pfet_01v8: Terminals are not distinct.
Notice from spectre in `sky130_fd_pr__pfet_01v8':`xinst0.xinst0.xinst8.xinst0', in `pmos_tile_w1000_l150_nf2':`xinst0.xinst0.xinst8', in `strong_arm_half':`xinst0.xinst0', in `strong_arm':`xinst0', during hierarchy flattening.
    xinst0.xinst0.xinst8.xinst0.msky130_fd_pr__pfet_01v8: Terminals are not distinct.
        Further occurrences of this notice will be suppressed.

Loading /share/instsww/cadence/LIBERATE/tools.lnx86/spectre/lib/64bit/mdl/libSpectreEH_sh.so ...

Time for EDB Visiting: CPU = 72.281 ms, elapsed = 456.415 ms.
Time accumulated: CPU = 740.23 ms, elapsed = 3.30726 s.
Peak resident memory used = 156 Mbytes.


Notice from spectre during topology check.
    No connections to node `xinst0.input_d_p'.
    No DC path from node `xinst0.input_d_p' to ground, Gmin installed to provide path.


Global user options:
               temp = 25

Scoped user options:

Circuit inventory:
              nodes 11
              bsim4 72    
          capacitor 2     
            vsource 4     

Analysis and control statement inventory:
                 dc 1     
              sweep 1     
               tran 1     

Output statements:
             .probe 0     
           .measure 2     
               save 5     


Notice from spectre.
    19 notices suppressed.

Time for parsing: CPU = 5.787 ms, elapsed = 61.029 ms.
Time accumulated: CPU = 746.199 ms, elapsed = 3.36849 s.
Peak resident memory used = 159 Mbytes.

~~~~~~~~~~~~~~~~~~~~~~
Pre-Simulation Summary
~~~~~~~~~~~~~~~~~~~~~~
~~~~~~~~~~~~~~~~~~~~~~

*********************************************************************
Transient Analysis `transient1-000_transient1': time = (0 s -> 30 ns)
*********************************************************************

Notice from spectre during IC analysis, during transient analysis `transient1-000_transient1', during task `MDLControl'.
    GminDC = 1 pS is large enough to noticeably affect the DC solution.
        dV(xinst0.tail_d) = 1.628 mV
        Use the `gmin_check' option to eliminate or expand this report.

DC simulation time: CPU = 2.988 ms, elapsed = 13.231 ms.

Opening the PSFXL file netlist.raw/transient1-000_transient1.tran.tran ...
Important parameter values:
    start = 0 s
    outputstart = 0 s
    stop = 30 ns
    step = 30 ps
    maxstep = 300 ps
    ic = all
    useprevic = no
    skipdc = no
    reltol = 100e-06
    abstol(V) = 1 uV
    abstol(I) = 1 pA
    temp = 25 C
    tnom = 27 C
    tempeffects = all
    errpreset = conservative
    method = gear2only
    lteratio = 10
    relref = alllocal
    cmin = 0 F
    gmin = 1 pS


Warning from spectre during transient analysis `transient1-000_transient1', during task `MDLControl'.
    WARNING (MDL-358): "netlist.scs" 84: probe 'V( clock )' is invalid.


Output and IC/nodeset summary:
                 probe  1       
                 save   5       (voltage)

.............9.............8.............7.............6.............5.............4.............3.............2.............1.............0
Number of accepted tran steps =             1344

Maximum value achieved for any signal of each quantity: 
V: V(xinst0.xinst0.xinst3.xinst0.msky130_fd_pr__pfet_01v8:dbnode) = 1.803 V
I: I(xinst4:p) = 51.76 mA

~~~~~~~~~~~~~~~~~~~~~~~~~~~~~~~~~
Post-Transient Simulation Summary
~~~~~~~~~~~~~~~~~~~~~~~~~~~~~~~~~
   -   To further speed up simulation, consider
          add ++aps on command line
   -   Non-default settings that could significantly slow down simulation
          errpreset = conservative, default moderate
~~~~~~~~~~~~~~~~~~~~~~~~~~~~~~~~~


During simulation, the CPU load for active processors is :
         2 (2.0 %)       4 (2.6 %)       8 (13.5 %)     10 (20.9 %)
        12 (9.9 %)      14 (1.8 %)      24 (4.1 %)      25 (1.2 %)
        Total: 59.3%
Initial condition solution time: CPU = 3.045 ms, elapsed = 15.5251 ms.
Intrinsic tran analysis time:    CPU = 163.456 ms, elapsed = 187.162 ms.
Total time required for tran analysis `transient1-000_transient1': CPU = 171.197 ms, elapsed = 232.778 ms.
Time accumulated: CPU = 922.97 ms, elapsed = 3.65467 s.
Peak resident memory used = 164 Mbytes.


*********************************************************************
Transient Analysis `transient1-001_transient1': time = (0 s -> 30 ns)
*********************************************************************

Notice from spectre during IC analysis, during transient analysis `transient1-001_transient1', during task `MDLControl'.
    GminDC = 1 pS is large enough to noticeably affect the DC solution.
        dV(xinst0.tail_d) = 1.67608 mV
        Use the `gmin_check' option to eliminate or expand this report.

DC simulation time: CPU = 2.177 ms, elapsed = 2.19011 ms.

Opening the PSFXL file netlist.raw/transient1-001_transient1.tran.tran ...
Important parameter values:
    start = 0 s
    outputstart = 0 s
    stop = 30 ns
    step = 30 ps
    maxstep = 300 ps
    ic = all
    useprevic = no
    skipdc = no
    reltol = 100e-06
    abstol(V) = 1 uV
    abstol(I) = 1 pA
    temp = 25 C
    tnom = 27 C
    tempeffects = all
    errpreset = conservative
    method = gear2only
    lteratio = 10
    relref = alllocal
    cmin = 0 F
    gmin = 1 pS


Warning from spectre during transient analysis `transient1-001_transient1', during task `MDLControl'.
    WARNING (MDL-358): "netlist.scs" 84: probe 'V( clock )' is invalid.


Output and IC/nodeset summary:
                 probe  1       
                 save   5       (voltage)

.............9.............8.............7.............6.............5.............4.............3.............2.............1.............0
Number of accepted tran steps =             1344

Maximum value achieved for any signal of each quantity: 
V: V(xinst0.xinst0.xinst3.xinst0.msky130_fd_pr__pfet_01v8:dbnode) = 1.803 V
I: I(xinst4:p) = 51.72 mA

~~~~~~~~~~~~~~~~~~~~~~~~~~~~~~~~~
Post-Transient Simulation Summary
~~~~~~~~~~~~~~~~~~~~~~~~~~~~~~~~~
   -   To further speed up simulation, consider
          add ++aps on command line
   -   Non-default settings that could significantly slow down simulation
          errpreset = conservative, default moderate
~~~~~~~~~~~~~~~~~~~~~~~~~~~~~~~~~


During simulation, the CPU load for active processors is :
         2 (1.9 %)       4 (2.5 %)       8 (17.4 %)     10 (20.2 %)
        12 (9.3 %)      14 (1.9 %)      24 (3.9 %)      25 (1.1 %)
        Total: 61.3%
Initial condition solution time: CPU = 2.207 ms, elapsed = 2.22015 ms.
Intrinsic tran analysis time:    CPU = 154.081 ms, elapsed = 162.483 ms.
Total time required for tran analysis `transient1-001_transient1': CPU = 158.761 ms, elapsed = 174.125 ms.
Time accumulated: CPU = 1.0869 s, elapsed = 3.85675 s.
Peak resident memory used = 165 Mbytes.


*********************************************************************
Transient Analysis `transient1-002_transient1': time = (0 s -> 30 ns)
*********************************************************************

Notice from spectre during IC analysis, during transient analysis `transient1-002_transient1', during task `MDLControl'.
    GminDC = 1 pS is large enough to noticeably affect the DC solution.
        dV(xinst0.tail_d) = 1.72183 mV
        Use the `gmin_check' option to eliminate or expand this report.

DC simulation time: CPU = 1.48 ms, elapsed = 1.48702 ms.

Opening the PSFXL file netlist.raw/transient1-002_transient1.tran.tran ...
Important parameter values:
    start = 0 s
    outputstart = 0 s
    stop = 30 ns
    step = 30 ps
    maxstep = 300 ps
    ic = all
    useprevic = no
    skipdc = no
    reltol = 100e-06
    abstol(V) = 1 uV
    abstol(I) = 1 pA
    temp = 25 C
    tnom = 27 C
    tempeffects = all
    errpreset = conservative
    method = gear2only
    lteratio = 10
    relref = alllocal
    cmin = 0 F
    gmin = 1 pS


Warning from spectre during transient analysis `transient1-002_transient1', during task `MDLControl'.
    WARNING (MDL-358): "netlist.scs" 84: probe 'V( clock )' is invalid.


Output and IC/nodeset summary:
                 probe  1       
                 save   5       (voltage)

.............9.............8.............7.............6.............5.............4.............3.............2.............1.............0
Number of accepted tran steps =             1343

Maximum value achieved for any signal of each quantity: 
V: V(xinst0.xinst0.xinst3.xinst1.msky130_fd_pr__pfet_01v8:sbnode) = 1.802 V
I: I(xinst4:p) = 51.67 mA

~~~~~~~~~~~~~~~~~~~~~~~~~~~~~~~~~
Post-Transient Simulation Summary
~~~~~~~~~~~~~~~~~~~~~~~~~~~~~~~~~
   -   To further speed up simulation, consider
          add ++aps on command line
   -   Non-default settings that could significantly slow down simulation
          errpreset = conservative, default moderate
~~~~~~~~~~~~~~~~~~~~~~~~~~~~~~~~~


During simulation, the CPU load for active processors is :
         2 (1.8 %)       4 (2.4 %)       8 (20.5 %)     10 (19.7 %)
        12 (9.1 %)      14 (1.8 %)      24 (3.7 %)      25 (1.0 %)
        Total: 62.9%
Initial condition solution time: CPU = 1.499 ms, elapsed = 1.50704 ms.
Intrinsic tran analysis time:    CPU = 152.375 ms, elapsed = 161.182 ms.
Total time required for tran analysis `transient1-002_transient1': CPU = 155.624 ms, elapsed = 171.265 ms.
Time accumulated: CPU = 1.24566 s, elapsed = 4.05347 s.
Peak resident memory used = 165 Mbytes.


*********************************************************************
Transient Analysis `transient1-003_transient1': time = (0 s -> 30 ns)
*********************************************************************

Notice from spectre during IC analysis, during transient analysis `transient1-003_transient1', during task `MDLControl'.
    GminDC = 1 pS is large enough to noticeably affect the DC solution.
        dV(xinst0.tail_d) = 1.76464 mV
        Use the `gmin_check' option to eliminate or expand this report.

DC simulation time: CPU = 1.041 ms, elapsed = 1.04403 ms.

Opening the PSFXL file netlist.raw/transient1-003_transient1.tran.tran ...
Important parameter values:
    start = 0 s
    outputstart = 0 s
    stop = 30 ns
    step = 30 ps
    maxstep = 300 ps
    ic = all
    useprevic = no
    skipdc = no
    reltol = 100e-06
    abstol(V) = 1 uV
    abstol(I) = 1 pA
    temp = 25 C
    tnom = 27 C
    tempeffects = all
    errpreset = conservative
    method = gear2only
    lteratio = 10
    relref = alllocal
    cmin = 0 F
    gmin = 1 pS


Warning from spectre during transient analysis `transient1-003_transient1', during task `MDLControl'.
    WARNING (MDL-358): "netlist.scs" 84: probe 'V( clock )' is invalid.


Output and IC/nodeset summary:
                 probe  1       
                 save   5       (voltage)

.............9.............8.............7.............6.............5.............4.............3.............2.............1.............0
Number of accepted tran steps =             1343

Maximum value achieved for any signal of each quantity: 
V: V(xinst0.xinst0.xinst3.xinst1.msky130_fd_pr__pfet_01v8:sbnode) = 1.802 V
I: I(xinst4:p) = 51.63 mA

~~~~~~~~~~~~~~~~~~~~~~~~~~~~~~~~~
Post-Transient Simulation Summary
~~~~~~~~~~~~~~~~~~~~~~~~~~~~~~~~~
   -   To further speed up simulation, consider
          add ++aps on command line
   -   Non-default settings that could significantly slow down simulation
          errpreset = conservative, default moderate
~~~~~~~~~~~~~~~~~~~~~~~~~~~~~~~~~


During simulation, the CPU load for active processors is :
         2 (2.0 %)       4 (2.2 %)       8 (20.1 %)     10 (23.0 %)
        12 (8.9 %)      14 (1.7 %)      24 (3.5 %)      
        Total: 65.3%
Initial condition solution time: CPU = 1.056 ms, elapsed = 1.05906 ms.
Intrinsic tran analysis time:    CPU = 155.569 ms, elapsed = 163.814 ms.
Total time required for tran analysis `transient1-003_transient1': CPU = 158.221 ms, elapsed = 173.316 ms.
Time accumulated: CPU = 1.40659 s, elapsed = 4.25037 s.
Peak resident memory used = 165 Mbytes.


*********************************************************************
Transient Analysis `transient1-004_transient1': time = (0 s -> 30 ns)
*********************************************************************

Notice from spectre during IC analysis, during transient analysis `transient1-004_transient1', during task `MDLControl'.
    GminDC = 1 pS is large enough to noticeably affect the DC solution.
        dV(xinst0.tail_d) = 1.80311 mV
        Use the `gmin_check' option to eliminate or expand this report.

DC simulation time: CPU = 1.346 ms, elapsed = 1.35684 ms.

Opening the PSFXL file netlist.raw/transient1-004_transient1.tran.tran ...
Important parameter values:
    start = 0 s
    outputstart = 0 s
    stop = 30 ns
    step = 30 ps
    maxstep = 300 ps
    ic = all
    useprevic = no
    skipdc = no
    reltol = 100e-06
    abstol(V) = 1 uV
    abstol(I) = 1 pA
    temp = 25 C
    tnom = 27 C
    tempeffects = all
    errpreset = conservative
    method = gear2only
    lteratio = 10
    relref = alllocal
    cmin = 0 F
    gmin = 1 pS


Warning from spectre during transient analysis `transient1-004_transient1', during task `MDLControl'.
    WARNING (MDL-358): "netlist.scs" 84: probe 'V( clock )' is invalid.


Output and IC/nodeset summary:
                 probe  1       
                 save   5       (voltage)

.............9.............8.............7.............6.............5.............4.............3.............2.............1.............0
Number of accepted tran steps =             1341

Maximum value achieved for any signal of each quantity: 
V: V(xinst0.xinst0.xinst3.xinst1.msky130_fd_pr__pfet_01v8:sbnode) = 1.802 V
I: I(xinst4:p) = 51.58 mA

~~~~~~~~~~~~~~~~~~~~~~~~~~~~~~~~~
Post-Transient Simulation Summary
~~~~~~~~~~~~~~~~~~~~~~~~~~~~~~~~~
   -   To further speed up simulation, consider
          add ++aps on command line
   -   Non-default settings that could significantly slow down simulation
          errpreset = conservative, default moderate
~~~~~~~~~~~~~~~~~~~~~~~~~~~~~~~~~


During simulation, the CPU load for active processors is :
         2 (1.9 %)       4 (2.1 %)       8 (19.5 %)     10 (25.7 %)
        12 (8.5 %)      14 (1.7 %)      24 (3.3 %)      
        Total: 66.3%
Initial condition solution time: CPU = 1.364 ms, elapsed = 1.37615 ms.
Intrinsic tran analysis time:    CPU = 151.083 ms, elapsed = 158.973 ms.
Total time required for tran analysis `transient1-004_transient1': CPU = 154.089 ms, elapsed = 168.264 ms.
Time accumulated: CPU = 1.5637 s, elapsed = 4.44295 s.
Peak resident memory used = 165 Mbytes.


*********************************************************************
Transient Analysis `transient1-005_transient1': time = (0 s -> 30 ns)
*********************************************************************

Notice from spectre during IC analysis, during transient analysis `transient1-005_transient1', during task `MDLControl'.
    GminDC = 1 pS is large enough to noticeably affect the DC solution.
        dV(xinst0.tail_d) = 1.83515 mV
        Use the `gmin_check' option to eliminate or expand this report.

DC simulation time: CPU = 1.612 ms, elapsed = 1.616 ms.

Opening the PSFXL file netlist.raw/transient1-005_transient1.tran.tran ...
Important parameter values:
    start = 0 s
    outputstart = 0 s
    stop = 30 ns
    step = 30 ps
    maxstep = 300 ps
    ic = all
    useprevic = no
    skipdc = no
    reltol = 100e-06
    abstol(V) = 1 uV
    abstol(I) = 1 pA
    temp = 25 C
    tnom = 27 C
    tempeffects = all
    errpreset = conservative
    method = gear2only
    lteratio = 10
    relref = alllocal
    cmin = 0 F
    gmin = 1 pS


Warning from spectre during transient analysis `transient1-005_transient1', during task `MDLControl'.
    WARNING (MDL-358): "netlist.scs" 84: probe 'V( clock )' is invalid.


Output and IC/nodeset summary:
                 probe  1       
                 save   5       (voltage)

.............9.............8.............7.............6.............5.............4.............3.............2.............1.............0
Number of accepted tran steps =             1341

Maximum value achieved for any signal of each quantity: 
V: V(xinst0.xinst0.xinst3.xinst0.msky130_fd_pr__pfet_01v8:dbnode) = 1.802 V
I: I(xinst4:p) = 51.54 mA

~~~~~~~~~~~~~~~~~~~~~~~~~~~~~~~~~
Post-Transient Simulation Summary
~~~~~~~~~~~~~~~~~~~~~~~~~~~~~~~~~
   -   To further speed up simulation, consider
          add ++aps on command line
   -   Non-default settings that could significantly slow down simulation
          errpreset = conservative, default moderate
~~~~~~~~~~~~~~~~~~~~~~~~~~~~~~~~~


During simulation, the CPU load for active processors is :
         2 (1.8 %)       4 (2.0 %)       8 (19.1 %)     10 (28.0 %)
        12 (8.1 %)      14 (1.8 %)      24 (3.2 %)      
        Total: 67.7%
Initial condition solution time: CPU = 1.636 ms, elapsed = 1.63889 ms.
Intrinsic tran analysis time:    CPU = 153.918 ms, elapsed = 162.364 ms.
Total time required for tran analysis `transient1-005_transient1': CPU = 158.027 ms, elapsed = 175.79 ms.
Time accumulated: CPU = 1.72477 s, elapsed = 4.64243 s.
Peak resident memory used = 165 Mbytes.


*********************************************************************
Transient Analysis `transient1-006_transient1': time = (0 s -> 30 ns)
*********************************************************************

Notice from spectre during IC analysis, during transient analysis `transient1-006_transient1', during task `MDLControl'.
    GminDC = 1 pS is large enough to noticeably affect the DC solution.
        dV(xinst0.tail_d) = 1.86077 mV
        Use the `gmin_check' option to eliminate or expand this report.

DC simulation time: CPU = 1.323 ms, elapsed = 1.32585 ms.

Opening the PSFXL file netlist.raw/transient1-006_transient1.tran.tran ...
Important parameter values:
    start = 0 s
    outputstart = 0 s
    stop = 30 ns
    step = 30 ps
    maxstep = 300 ps
    ic = all
    useprevic = no
    skipdc = no
    reltol = 100e-06
    abstol(V) = 1 uV
    abstol(I) = 1 pA
    temp = 25 C
    tnom = 27 C
    tempeffects = all
    errpreset = conservative
    method = gear2only
    lteratio = 10
    relref = alllocal
    cmin = 0 F
    gmin = 1 pS


Warning from spectre during transient analysis `transient1-006_transient1', during task `MDLControl'.
    WARNING (MDL-358): "netlist.scs" 84: probe 'V( clock )' is invalid.


Output and IC/nodeset summary:
                 probe  1       
                 save   5       (voltage)

.............9.............8.............7.............6.............5.............4.............3.............2.............1.............0
Number of accepted tran steps =             1340

Maximum value achieved for any signal of each quantity: 
V: V(xinst0.xinst0.xinst3.xinst0.msky130_fd_pr__pfet_01v8:dbnode) = 1.802 V
I: I(xinst4:p) = 51.49 mA

~~~~~~~~~~~~~~~~~~~~~~~~~~~~~~~~~
Post-Transient Simulation Summary
~~~~~~~~~~~~~~~~~~~~~~~~~~~~~~~~~
   -   To further speed up simulation, consider
          add ++aps on command line
   -   Non-default settings that could significantly slow down simulation
          errpreset = conservative, default moderate
~~~~~~~~~~~~~~~~~~~~~~~~~~~~~~~~~


During simulation, the CPU load for active processors is :
         2 (1.7 %)       4 (2.0 %)       8 (18.7 %)     10 (30.3 %)
        12 (7.8 %)      14 (1.7 %)      24 (3.0 %)      
        Total: 69.0%
Initial condition solution time: CPU = 1.342 ms, elapsed = 1.34611 ms.
Intrinsic tran analysis time:    CPU = 151.774 ms, elapsed = 160.164 ms.
Total time required for tran analysis `transient1-006_transient1': CPU = 154.897 ms, elapsed = 169.922 ms.
Time accumulated: CPU = 1.88293 s, elapsed = 4.83741 s.
Peak resident memory used = 165 Mbytes.


*********************************************************************
Transient Analysis `transient1-007_transient1': time = (0 s -> 30 ns)
*********************************************************************

Notice from spectre during IC analysis, during transient analysis `transient1-007_transient1', during task `MDLControl'.
    GminDC = 1 pS is large enough to noticeably affect the DC solution.
        dV(xinst0.tail_d) = 1.88724 mV
        Use the `gmin_check' option to eliminate or expand this report.

DC simulation time: CPU = 942 us, elapsed = 946.999 us.

Opening the PSFXL file netlist.raw/transient1-007_transient1.tran.tran ...
Important parameter values:
    start = 0 s
    outputstart = 0 s
    stop = 30 ns
    step = 30 ps
    maxstep = 300 ps
    ic = all
    useprevic = no
    skipdc = no
    reltol = 100e-06
    abstol(V) = 1 uV
    abstol(I) = 1 pA
    temp = 25 C
    tnom = 27 C
    tempeffects = all
    errpreset = conservative
    method = gear2only
    lteratio = 10
    relref = alllocal
    cmin = 0 F
    gmin = 1 pS


Warning from spectre during transient analysis `transient1-007_transient1', during task `MDLControl'.
    WARNING (MDL-358): "netlist.scs" 84: probe 'V( clock )' is invalid.


Output and IC/nodeset summary:
                 probe  1       
                 save   5       (voltage)

.............9.............8.............7.............6.............5.............4.............3.............2.............1.............0
Number of accepted tran steps =             1339

Maximum value achieved for any signal of each quantity: 
V: V(xinst0.xinst0.xinst3.xinst0.msky130_fd_pr__pfet_01v8:dbnode) = 1.802 V
I: I(xinst4:p) = 51.44 mA

~~~~~~~~~~~~~~~~~~~~~~~~~~~~~~~~~
Post-Transient Simulation Summary
~~~~~~~~~~~~~~~~~~~~~~~~~~~~~~~~~
   -   To further speed up simulation, consider
          add ++aps on command line
   -   Non-default settings that could significantly slow down simulation
          errpreset = conservative, default moderate
~~~~~~~~~~~~~~~~~~~~~~~~~~~~~~~~~


During simulation, the CPU load for active processors is :
         0 (1.0 %)       2 (1.9 %)       4 (2.1 %)       8 (21.2 %)
        10 (29.4 %)     12 (7.9 %)      14 (1.9 %)      24 (2.9 %)
        25 (1.0 %)      
        Total: 71.9%
Initial condition solution time: CPU = 956 us, elapsed = 961.781 us.
Intrinsic tran analysis time:    CPU = 153.784 ms, elapsed = 162.343 ms.
Total time required for tran analysis `transient1-007_transient1': CPU = 156.223 ms, elapsed = 171.96 ms.
Time accumulated: CPU = 2.04186 s, elapsed = 5.03225 s.
Peak resident memory used = 165 Mbytes.


*********************************************************************
Transient Analysis `transient1-008_transient1': time = (0 s -> 30 ns)
*********************************************************************

Notice from spectre during IC analysis, during transient analysis `transient1-008_transient1', during task `MDLControl'.
    GminDC = 1 pS is large enough to noticeably affect the DC solution.
        dV(xinst0.tail_d) = 1.90142 mV
        Use the `gmin_check' option to eliminate or expand this report.

DC simulation time: CPU = 1.252 ms, elapsed = 1.2579 ms.

Opening the PSFXL file netlist.raw/transient1-008_transient1.tran.tran ...
Important parameter values:
    start = 0 s
    outputstart = 0 s
    stop = 30 ns
    step = 30 ps
    maxstep = 300 ps
    ic = all
    useprevic = no
    skipdc = no
    reltol = 100e-06
    abstol(V) = 1 uV
    abstol(I) = 1 pA
    temp = 25 C
    tnom = 27 C
    tempeffects = all
    errpreset = conservative
    method = gear2only
    lteratio = 10
    relref = alllocal
    cmin = 0 F
    gmin = 1 pS


Warning from spectre during transient analysis `transient1-008_transient1', during task `MDLControl'.
    WARNING (MDL-358): "netlist.scs" 84: probe 'V( clock )' is invalid.


Output and IC/nodeset summary:
                 probe  1       
                 save   5       (voltage)

.............9.............8.............7.............6.............5.............4.............3.............2.............1.............0
Number of accepted tran steps =             1338

Maximum value achieved for any signal of each quantity: 
V: V(xinst0.xinst0.xinst3.xinst0.msky130_fd_pr__pfet_01v8:dbnode) = 1.802 V
I: I(xinst4:p) = 51.4 mA

~~~~~~~~~~~~~~~~~~~~~~~~~~~~~~~~~
Post-Transient Simulation Summary
~~~~~~~~~~~~~~~~~~~~~~~~~~~~~~~~~
   -   To further speed up simulation, consider
          add ++aps on command line
   -   Non-default settings that could significantly slow down simulation
          errpreset = conservative, default moderate
~~~~~~~~~~~~~~~~~~~~~~~~~~~~~~~~~


During simulation, the CPU load for active processors is :
         0 (1.0 %)       2 (1.8 %)       4 (2.0 %)       8 (23.6 %)
        10 (28.5 %)     12 (7.6 %)      14 (1.8 %)      24 (3.0 %)
        25 (1.0 %)      
        Total: 72.8%
Initial condition solution time: CPU = 1.271 ms, elapsed = 1.27792 ms.
Intrinsic tran analysis time:    CPU = 151.938 ms, elapsed = 160.62 ms.
Total time required for tran analysis `transient1-008_transient1': CPU = 154.992 ms, elapsed = 170.419 ms.
Time accumulated: CPU = 2.19998 s, elapsed = 5.22909 s.
Peak resident memory used = 165 Mbytes.


*********************************************************************
Transient Analysis `transient1-009_transient1': time = (0 s -> 30 ns)
*********************************************************************

Notice from spectre during IC analysis, during transient analysis `transient1-009_transient1', during task `MDLControl'.
    GminDC = 1 pS is large enough to noticeably affect the DC solution.
        dV(xinst0.tail_d) = 1.90293 mV
        Use the `gmin_check' option to eliminate or expand this report.

DC simulation time: CPU = 1.446 ms, elapsed = 1.45197 ms.

Opening the PSFXL file netlist.raw/transient1-009_transient1.tran.tran ...
Important parameter values:
    start = 0 s
    outputstart = 0 s
    stop = 30 ns
    step = 30 ps
    maxstep = 300 ps
    ic = all
    useprevic = no
    skipdc = no
    reltol = 100e-06
    abstol(V) = 1 uV
    abstol(I) = 1 pA
    temp = 25 C
    tnom = 27 C
    tempeffects = all
    errpreset = conservative
    method = gear2only
    lteratio = 10
    relref = alllocal
    cmin = 0 F
    gmin = 1 pS


Warning from spectre during transient analysis `transient1-009_transient1', during task `MDLControl'.
    WARNING (MDL-358): "netlist.scs" 84: probe 'V( clock )' is invalid.


Output and IC/nodeset summary:
                 probe  1       
                 save   5       (voltage)

.............9.............8.............7.............6.............5.............4.............3.............2.............1.............0
Number of accepted tran steps =             1338

Maximum value achieved for any signal of each quantity: 
V: V(xinst0.xinst0.xinst3.xinst1.msky130_fd_pr__pfet_01v8:sbnode) = 1.802 V
I: I(xinst4:p) = 51.37 mA

~~~~~~~~~~~~~~~~~~~~~~~~~~~~~~~~~
Post-Transient Simulation Summary
~~~~~~~~~~~~~~~~~~~~~~~~~~~~~~~~~
   -   To further speed up simulation, consider
          add ++aps on command line
   -   Non-default settings that could significantly slow down simulation
          errpreset = conservative, default moderate
~~~~~~~~~~~~~~~~~~~~~~~~~~~~~~~~~


During simulation, the CPU load for active processors is :
         2 (1.9 %)       4 (2.1 %)       8 (25.8 %)     10 (27.6 %)
        12 (7.3 %)      14 (1.7 %)      24 (3.1 %)      
        Total: 74.3%
Initial condition solution time: CPU = 1.464 ms, elapsed = 1.472 ms.
Intrinsic tran analysis time:    CPU = 151.963 ms, elapsed = 160.544 ms.
Total time required for tran analysis `transient1-009_transient1': CPU = 155.179 ms, elapsed = 170.865 ms.
Time accumulated: CPU = 2.35835 s, elapsed = 5.42677 s.
Peak resident memory used = 165 Mbytes.


********************
DC Analysis `dcrun1'
********************

Opening the PSF file netlist.raw/dcrun1.dc ...
Important parameter values:
    reltol = 1e-03
    abstol(V) = 1 uV
    abstol(I) = 1 pA
    temp = 25 C
    tnom = 27 C
    tempeffects = all
    gmindc = 1 pS

Notice from spectre during DC analysis `dcrun1', during task `MDLControl'.
    GminDC = 1 pS is large enough to noticeably affect the DC solution.
        dV(xinst0.tail_d) = 1.628 mV
        Use the `gmin_check' option to eliminate or expand this report.


Maximum value achieved for any signal of each quantity: 
V: V(vdd) = 1.8 V
I: I(xinst3:p) = 550.9 pA

*************************************
Operating-Point information `dcrun1':
*************************************
Operating point computed in DC analysis `dcrun1' at T = 25 C.

    V(clk) = 1.8 V
    V(output_n) = 1.19542 nV
    V(output_p) = 1.19542 nV
    V(vinn) = 350 mV
    V(vinp) = 350 mV


Most positive signals:
    V(clk) = 1.8 V

Most negative signals:
    I(xinst3:p) = -550.911 pA

Smallest signals:
    V(xinst0.input_d_p) = 0 V
    I(xinst4:p) = 0 A


Instance: xinst0.xinst0.xinst0.xinst0.msky130_fd_pr__pfet_01v8 of sky130_fd_pr__pfet_01v8
Model: xinst0.xinst0.xinst0.xinst0.sky130_fd_pr__pfet_01v8__model.71
Primitive: bsim4
          d : V(vdd) = 1.8 V
          g : V(vdd) = 1.8 V
          s : V(vdd) = 1.8 V
          b : V(vdd) = 1.8 V
     region = sat
      trise = 0 C
      dtemp = 0 C
   reversed = no
        ids = 0 A
        vgs = 0 V
        vds = 0 V
        vbs = 0 V
        vgd = 0 V
        vdb = 0 V
        vgb = 0 V
        vth = 0 V
      vdsat = -0 V
         gm = 0 S
        gds = 0 S
       gmbs = 0 S
    betaeff = 0 A/V^2
        cjd = 0 F
        cjs = 0 F
        cgg = 128.978 aF
        cgd = -64.4892 aF
        cgs = -64.4892 aF
        cgb = 0 F
        cdg = -64.4892 aF
        cdd = 64.4892 aF
        cds = 0 F
        cdb = 0 F
        csg = -64.4892 aF
        csd = 0 F
        css = 64.4892 aF
        csb = 0 F
        cbg = 0 F
        cbd = 0 F
        cbs = 0 F
        cbb = 0 F
     covlgs = 64.4892 aF/m
     covlgd = 64.4892 aF/m
     covlgb = 0 F/m
      cggbo = 0 F
      cgdbo = 0 F
      cgsbo = 0 F
      cbgbo = 0 F
      cbdbo = 0 F
      cbsbo = 0 F
      cdgbo = 0 F
      cddbo = 0 F
      cdsbo = 0 F
        ron = infinity Ohm
         id = 0 A
      ibulk = 0 A
        pwr = 0 W
   gmoverid = 0 1/V
       ueff = 0
      rdeff = 0 Ohm
      rseff = 0 Ohm
       rgbd = 0 Ohm
      igidl = 0 A
      igisl = 0 A
       igdt = 0 A
        igd = 0 A
        igs = 0 A
        igb = 0 A
     igbacc = 0 A
     igbinv = 0 A
       igcs = 0 A
       igcd = 0 A
       isub = -0 A
        gbs = 0 S
        gbd = 0 S
         qg = 0 Coul
         qd = 0 Coul
         qs = 0 Coul
         qb = 0 Coul
        qjd = 0 Coul
        qjs = 0 Coul
     qgdovl = 0 Coul
     qgsovl = 0 Coul
        qgi = 0 Coul
        qdi = 0 Coul
        qsi = 0 Coul
        qbi = 0 Coul
        ide = 0 A
        ige = 0 A
        ise = 0 A
        ibe = 0 A
        idb = 0 A
        isb = 0 A
        vsb = -0 V
        gmb = 0 S
        vgt = 0 V
       vdss = -0 V
  vsat_marg = 0 V
  self_gain = infinity
       rout = infinity Ohm
       beff = 0 A/V^2
        fug = 0 Hz
      rgate = 0 Ohm
     vearly = infinity V

Instance: xinst0.xinst0.xinst0.xinst1.msky130_fd_pr__pfet_01v8 of sky130_fd_pr__pfet_01v8
Model: xinst0.xinst0.xinst0.xinst0.sky130_fd_pr__pfet_01v8__model.71
Primitive: bsim4
          d : V(vdd) = 1.8 V
          g : V(vdd) = 1.8 V
          s : V(vdd) = 1.8 V
          b : V(vdd) = 1.8 V
     region = sat
      trise = 0 C
      dtemp = 0 C
   reversed = no
        ids = 0 A
        vgs = 0 V
        vds = 0 V
        vbs = 0 V
        vgd = 0 V
        vdb = 0 V
        vgb = 0 V
        vth = 0 V
      vdsat = -0 V
         gm = 0 S
        gds = 0 S
       gmbs = 0 S
    betaeff = 0 A/V^2
        cjd = 0 F
        cjs = 0 F
        cgg = 128.978 aF
        cgd = -64.4892 aF
        cgs = -64.4892 aF
        cgb = 0 F
        cdg = -64.4892 aF
        cdd = 64.4892 aF
        cds = 0 F
        cdb = 0 F
        csg = -64.4892 aF
        csd = 0 F
        css = 64.4892 aF
        csb = 0 F
        cbg = 0 F
        cbd = 0 F
        cbs = 0 F
        cbb = 0 F
     covlgs = 64.4892 aF/m
     covlgd = 64.4892 aF/m
     covlgb = 0 F/m
      cggbo = 0 F
      cgdbo = 0 F
      cgsbo = 0 F
      cbgbo = 0 F
      cbdbo = 0 F
      cbsbo = 0 F
      cdgbo = 0 F
      cddbo = 0 F
      cdsbo = 0 F
        ron = infinity Ohm
         id = 0 A
      ibulk = 0 A
        pwr = 0 W
   gmoverid = 0 1/V
       ueff = 0
      rdeff = 0 Ohm
      rseff = 0 Ohm
       rgbd = 0 Ohm
      igidl = 0 A
      igisl = 0 A
       igdt = 0 A
        igd = 0 A
        igs = 0 A
        igb = 0 A
     igbacc = 0 A
     igbinv = 0 A
       igcs = 0 A
       igcd = 0 A
       isub = -0 A
        gbs = 0 S
        gbd = 0 S
         qg = 0 Coul
         qd = 0 Coul
         qs = 0 Coul
         qb = 0 Coul
        qjd = 0 Coul
        qjs = 0 Coul
     qgdovl = 0 Coul
     qgsovl = 0 Coul
        qgi = 0 Coul
        qdi = 0 Coul
        qsi = 0 Coul
        qbi = 0 Coul
        ide = 0 A
        ige = 0 A
        ise = 0 A
        ibe = 0 A
        idb = 0 A
        isb = 0 A
        vsb = -0 V
        gmb = 0 S
        vgt = 0 V
       vdss = -0 V
  vsat_marg = 0 V
  self_gain = infinity
       rout = infinity Ohm
       beff = 0 A/V^2
        fug = 0 Hz
      rgate = 0 Ohm
     vearly = infinity V

Instance: xinst0.xinst0.xinst1.xinst0.msky130_fd_pr__pfet_01v8 of sky130_fd_pr__pfet_01v8
Model: xinst0.xinst0.xinst0.xinst0.sky130_fd_pr__pfet_01v8__model.71
Primitive: bsim4
          d : V(vdd) = 1.8 V
          g : V(clk) = 1.8 V
          s : V(xinst0.tail_d) = 628.383 mV
          b : V(vdd) = 1.8 V
     region = off
      trise = 0 C
      dtemp = 0 C
   reversed = yes
        ids = -59.8961 pA
        vgs = 0 V
        vds = -1.17162 V
        vbs = 0 V
        vgd = 1.17162 V
        vdb = -1.17162 V
        vgb = 0 V
        vth = -594.527 mV
      vdsat = -44.2294 mV
         gm = 1.30902 nS
        gds = 161.01 pS
       gmbs = 417.182 pS
    betaeff = 250.387 uA/V^2
        cjd = 239.155 aF
        cjs = 137.443 aF
        cgg = 694.77 aF
        cgd = -95.9927 aF
        cgs = -65.9712 aF
        cgb = -532.807 aF
        cdg = -88.2662 aF
        cdd = 96.5347 aF
        cds = -1.95942 aF
        cdb = -6.30905 aF
        csg = -78.0913 aF
        csd = 15.8041 aF
        css = 66.4951 aF
        csb = -4.20798 aF
        cbg = -528.413 aF
        cbd = -16.3462 aF
        cbs = 1.43553 aF
        cbb = 543.324 aF
     covlgs = 67.8008 aF/m
     covlgd = 72.8377 aF/m
     covlgb = 0 F/m
      cggbo = 554.132 aF
      cgdbo = 1.8296 aF
      cgsbo = -23.1549 aF
      cbgbo = -528.413 aF
      cbdbo = 1.43553 aF
      cbsbo = -16.3462 aF
      cdgbo = -10.2904 aF
      cddbo = -1.30571 aF
      cdsbo = 15.8041 aF
        ron = 19.5608 GOhm
         id = 59.8961 pA
      ibulk = 13.0422 fA
        pwr = 70.1906 pW
   gmoverid = 21.8549 1/V
       ueff = 5.54014e-03
      rdeff = 0 Ohm
      rseff = 0 Ohm
       rgbd = 0 Ohm
      igidl = -0 A
      igisl = -2.98099 fA
       igdt = -0 A
        igd = -0 A
        igs = -0 A
        igb = -0 A
     igbacc = -0 A
     igbinv = -0 A
       igcs = -0 A
       igcd = -0 A
       isub = 61.2154 aA
        gbs = 1 pS
        gbd = 1.28553 pS
         qg = -988.526 aCoul
         qd = 2.49241 aCoul
         qs = -4.12524 aCoul
         qb = 990.159 aCoul
        qjd = -1.77534e-27 Coul
        qjs = 209.307 aCoul
     qgdovl = -196.692e-21 Coul
     qgsovl = 5.65642 aCoul
        qgi = -988.526 aCoul
        qdi = 2.49241 aCoul
        qsi = -4.12524 aCoul
        qbi = 990.159 aCoul
        ide = 61.0677 pA
        ige = -0 A
        ise = -62.2524 pA
        ibe = 1.18466 pA
        idb = -9.54296e-24 A
        isb = 1.18162 pA
        vsb = -0 V
        gmb = 417.182 pS
        vgt = 594.527 mV
       vdss = -44.2294 mV
  vsat_marg = 1.12739 V
  self_gain = 8.13008
       rout = 6.21079 GOhm
       beff = 345.54 pA/V^2
        fug = 299.865 kHz
      rgate = 0 Ohm
     vearly = 379.279 mV

Instance: xinst0.xinst0.xinst1.xinst1.msky130_fd_pr__pfet_01v8 of sky130_fd_pr__pfet_01v8
Model: xinst0.xinst0.xinst0.xinst0.sky130_fd_pr__pfet_01v8__model.71
Primitive: bsim4
          d : V(xinst0.tail_d) = 628.383 mV
          g : V(clk) = 1.8 V
          s : V(vdd) = 1.8 V
          b : V(vdd) = 1.8 V
     region = off
      trise = 0 C
      dtemp = 0 C
   reversed = no
        ids = -59.8961 pA
        vgs = 0 V
        vds = -1.17162 V
        vbs = 0 V
        vgd = 1.17162 V
        vdb = -1.17162 V
        vgb = 0 V
        vth = -594.527 mV
      vdsat = -44.2294 mV
         gm = 1.30902 nS
        gds = 161.01 pS
       gmbs = 417.182 pS
    betaeff = 250.387 uA/V^2
        cjd = 137.443 aF
        cjs = 239.155 aF
        cgg = 694.77 aF
        cgd = -65.9712 aF
        cgs = -95.9927 aF
        cgb = -532.807 aF
        cdg = -78.0913 aF
        cdd = 66.4951 aF
        cds = 15.8041 aF
        cdb = -4.20798 aF
        csg = -88.2662 aF
        csd = -1.95942 aF
        css = 96.5347 aF
        csb = -6.30905 aF
        cbg = -528.413 aF
        cbd = 1.43553 aF
        cbs = -16.3462 aF
        cbb = 543.324 aF
     covlgs = 72.8377 aF/m
     covlgd = 67.8008 aF/m
     covlgb = 0 F/m
      cggbo = 554.132 aF
      cgdbo = 1.8296 aF
      cgsbo = -23.1549 aF
      cbgbo = -528.413 aF
      cbdbo = 1.43553 aF
      cbsbo = -16.3462 aF
      cdgbo = -10.2904 aF
      cddbo = -1.30571 aF
      cdsbo = 15.8041 aF
        ron = 19.5608 GOhm
         id = -59.9092 pA
      ibulk = 13.0422 fA
        pwr = 70.1906 pW
   gmoverid = 21.8549 1/V
       ueff = 5.54014e-03
      rdeff = 0 Ohm
      rseff = 0 Ohm
       rgbd = 0 Ohm
      igidl = -2.98099 fA
      igisl = -0 A
       igdt = -0 A
        igd = -0 A
        igs = -0 A
        igb = -0 A
     igbacc = -0 A
     igbinv = -0 A
       igcs = -0 A
       igcd = -0 A
       isub = 61.2154 aA
        gbs = 1.28553 pS
        gbd = 1 pS
         qg = -988.526 aCoul
         qd = -4.12524 aCoul
         qs = 2.49241 aCoul
         qb = 990.159 aCoul
        qjd = 209.307 aCoul
        qjs = -1.77534e-27 Coul
     qgdovl = 5.65642 aCoul
     qgsovl = -196.692e-21 Coul
        qgi = -988.526 aCoul
        qdi = -4.12524 aCoul
        qsi = 2.49241 aCoul
        qbi = 990.159 aCoul
        ide = -62.2524 pA
        ige = -0 A
        ise = 61.0677 pA
        ibe = 1.18466 pA
        idb = 1.18162 pA
        isb = -9.54296e-24 A
        vsb = -0 V
        gmb = 417.182 pS
        vgt = 594.527 mV
       vdss = -44.2294 mV
  vsat_marg = 1.12739 V
  self_gain = 8.13008
       rout = 6.21079 GOhm
       beff = 352.244 pA/V^2
        fug = 299.865 kHz
      rgate = 0 Ohm
     vearly = 386.637 mV

Instance: xinst0.xinst0.xinst2.xinst0.msky130_fd_pr__pfet_01v8 of sky130_fd_pr__pfet_01v8
Model: xinst0.xinst0.xinst0.xinst0.sky130_fd_pr__pfet_01v8__model.71
Primitive: bsim4
          d : V(vdd) = 1.8 V
          g : V(clk) = 1.8 V
          s : V(xinst0.tail_d) = 628.383 mV
          b : V(vdd) = 1.8 V
     region = off
      trise = 0 C
      dtemp = 0 C
   reversed = yes
        ids = -59.8961 pA
        vgs = 0 V
        vds = -1.17162 V
        vbs = 0 V
        vgd = 1.17162 V
        vdb = -1.17162 V
        vgb = 0 V
        vth = -594.527 mV
      vdsat = -44.2294 mV
         gm = 1.30902 nS
        gds = 161.01 pS
       gmbs = 417.182 pS
    betaeff = 250.387 uA/V^2
        cjd = 239.155 aF
        cjs = 137.443 aF
        cgg = 694.77 aF
        cgd = -95.9927 aF
        cgs = -65.9712 aF
        cgb = -532.807 aF
        cdg = -88.2662 aF
        cdd = 96.5347 aF
        cds = -1.95942 aF
        cdb = -6.30905 aF
        csg = -78.0913 aF
        csd = 15.8041 aF
        css = 66.4951 aF
        csb = -4.20798 aF
        cbg = -528.413 aF
        cbd = -16.3462 aF
        cbs = 1.43553 aF
        cbb = 543.324 aF
     covlgs = 67.8008 aF/m
     covlgd = 72.8377 aF/m
     covlgb = 0 F/m
      cggbo = 554.132 aF
      cgdbo = 1.8296 aF
      cgsbo = -23.1549 aF
      cbgbo = -528.413 aF
      cbdbo = 1.43553 aF
      cbsbo = -16.3462 aF
      cdgbo = -10.2904 aF
      cddbo = -1.30571 aF
      cdsbo = 15.8041 aF
        ron = 19.5608 GOhm
         id = 59.8961 pA
      ibulk = 13.0422 fA
        pwr = 70.1906 pW
   gmoverid = 21.8549 1/V
       ueff = 5.54014e-03
      rdeff = 0 Ohm
      rseff = 0 Ohm
       rgbd = 0 Ohm
      igidl = -0 A
      igisl = -2.98099 fA
       igdt = -0 A
        igd = -0 A
        igs = -0 A
        igb = -0 A
     igbacc = -0 A
     igbinv = -0 A
       igcs = -0 A
       igcd = -0 A
       isub = 61.2154 aA
        gbs = 1 pS
        gbd = 1.28553 pS
         qg = -988.526 aCoul
         qd = 2.49241 aCoul
         qs = -4.12524 aCoul
         qb = 990.159 aCoul
        qjd = -1.77534e-27 Coul
        qjs = 209.307 aCoul
     qgdovl = -196.692e-21 Coul
     qgsovl = 5.65642 aCoul
        qgi = -988.526 aCoul
        qdi = 2.49241 aCoul
        qsi = -4.12524 aCoul
        qbi = 990.159 aCoul
        ide = 61.0677 pA
        ige = -0 A
        ise = -62.2524 pA
        ibe = 1.18466 pA
        idb = -9.54296e-24 A
        isb = 1.18162 pA
        vsb = -0 V
        gmb = 417.182 pS
        vgt = 594.527 mV
       vdss = -44.2294 mV
  vsat_marg = 1.12739 V
  self_gain = 8.13008
       rout = 6.21079 GOhm
       beff = 345.54 pA/V^2
        fug = 299.865 kHz
      rgate = 0 Ohm
     vearly = 379.279 mV

Instance: xinst0.xinst0.xinst2.xinst1.msky130_fd_pr__pfet_01v8 of sky130_fd_pr__pfet_01v8
Model: xinst0.xinst0.xinst0.xinst0.sky130_fd_pr__pfet_01v8__model.71
Primitive: bsim4
          d : V(xinst0.tail_d) = 628.383 mV
          g : V(clk) = 1.8 V
          s : V(vdd) = 1.8 V
          b : V(vdd) = 1.8 V
     region = off
      trise = 0 C
      dtemp = 0 C
   reversed = no
        ids = -59.8961 pA
        vgs = 0 V
        vds = -1.17162 V
        vbs = 0 V
        vgd = 1.17162 V
        vdb = -1.17162 V
        vgb = 0 V
        vth = -594.527 mV
      vdsat = -44.2294 mV
         gm = 1.30902 nS
        gds = 161.01 pS
       gmbs = 417.182 pS
    betaeff = 250.387 uA/V^2
        cjd = 137.443 aF
        cjs = 239.155 aF
        cgg = 694.77 aF
        cgd = -65.9712 aF
        cgs = -95.9927 aF
        cgb = -532.807 aF
        cdg = -78.0913 aF
        cdd = 66.4951 aF
        cds = 15.8041 aF
        cdb = -4.20798 aF
        csg = -88.2662 aF
        csd = -1.95942 aF
        css = 96.5347 aF
        csb = -6.30905 aF
        cbg = -528.413 aF
        cbd = 1.43553 aF
        cbs = -16.3462 aF
        cbb = 543.324 aF
     covlgs = 72.8377 aF/m
     covlgd = 67.8008 aF/m
     covlgb = 0 F/m
      cggbo = 554.132 aF
      cgdbo = 1.8296 aF
      cgsbo = -23.1549 aF
      cbgbo = -528.413 aF
      cbdbo = 1.43553 aF
      cbsbo = -16.3462 aF
      cdgbo = -10.2904 aF
      cddbo = -1.30571 aF
      cdsbo = 15.8041 aF
        ron = 19.5608 GOhm
         id = -59.9092 pA
      ibulk = 13.0422 fA
        pwr = 70.1906 pW
   gmoverid = 21.8549 1/V
       ueff = 5.54014e-03
      rdeff = 0 Ohm
      rseff = 0 Ohm
       rgbd = 0 Ohm
      igidl = -2.98099 fA
      igisl = -0 A
       igdt = -0 A
        igd = -0 A
        igs = -0 A
        igb = -0 A
     igbacc = -0 A
     igbinv = -0 A
       igcs = -0 A
       igcd = -0 A
       isub = 61.2154 aA
        gbs = 1.28553 pS
        gbd = 1 pS
         qg = -988.526 aCoul
         qd = -4.12524 aCoul
         qs = 2.49241 aCoul
         qb = 990.159 aCoul
        qjd = 209.307 aCoul
        qjs = -1.77534e-27 Coul
     qgdovl = 5.65642 aCoul
     qgsovl = -196.692e-21 Coul
        qgi = -988.526 aCoul
        qdi = -4.12524 aCoul
        qsi = 2.49241 aCoul
        qbi = 990.159 aCoul
        ide = -62.2524 pA
        ige = -0 A
        ise = 61.0677 pA
        ibe = 1.18466 pA
        idb = 1.18162 pA
        isb = -9.54296e-24 A
        vsb = -0 V
        gmb = 417.182 pS
        vgt = 594.527 mV
       vdss = -44.2294 mV
  vsat_marg = 1.12739 V
  self_gain = 8.13008
       rout = 6.21079 GOhm
       beff = 352.244 pA/V^2
        fug = 299.865 kHz
      rgate = 0 Ohm
     vearly = 386.637 mV

Instance: xinst0.xinst0.xinst3.xinst0.msky130_fd_pr__pfet_01v8 of sky130_fd_pr__pfet_01v8
Model: xinst0.xinst0.xinst0.xinst0.sky130_fd_pr__pfet_01v8__model.71
Primitive: bsim4
          d : V(xinst0.tail_d) = 628.383 mV
          g : V(vinp) = 350 mV
          s : V(xinst0.input_d_n) = 44.286 nV
          b : V(vdd) = 1.8 V
     region = off
      trise = 0 C
      dtemp = 0 C
   reversed = yes
        ids = -62.8213 pA
        vgs = -278.383 mV
        vds = -628.383 mV
        vbs = 1.17162 V
        vgd = 350 mV
        vdb = -1.8 V
        vgb = -1.45 V
        vth = -832.288 mV
      vdsat = -48.3444 mV
         gm = 1.31755 nS
        gds = 167.967 pS
       gmbs = 122.446 pS
    betaeff = 328.965 uA/V^2
        cjd = 137.443 aF
        cjs = 112.486 aF
        cgg = 567.339 aF
        cgd = -92.1622 aF
        cgs = -68.2776 aF
        cgb = -406.899 aF
        cdg = -86.1235 aF
        cdd = 89.1139 aF
        cds = -1.5582 aF
        cdb = -1.4322 aF
        csg = -78.2956 aF
        csd = 10.1904 aF
        css = 69.0614 aF
        csb = -956.262e-21 F
        cbg = -402.92 aF
        cbd = -7.14207 aF
        cbs = 774.366e-21 F
        cbb = 409.288 aF
     covlgs = 70.097 aF/m
     covlgd = 73.8445 aF/m
     covlgb = 0 F/m
      cggbo = 423.398 aF
      cgdbo = 1.81943 aF
      cgsbo = -18.3177 aF
      cbgbo = -402.92 aF
      cbdbo = 774.366e-21 F
      cbsbo = -7.14207 aF
      cdgbo = -8.19854 aF
      cddbo = -1.03559 aF
      cdsbo = 10.1904 aF
        ron = 10.0027 GOhm
         id = 62.8113 pA
      ibulk = 20.0001 fA
        pwr = 39.5055 pW
   gmoverid = 20.9729 1/V
       ueff = 7.27877e-03
      rdeff = 0 Ohm
      rseff = 0 Ohm
       rgbd = 0 Ohm
      igidl = -0 A
      igisl = -31.2168e-33 A
       igdt = -0 A
        igd = -0 A
        igs = -0 A
        igb = -0 A
     igbacc = -0 A
     igbinv = -0 A
       igcs = -0 A
       igcd = -0 A
       isub = 77.6587e-21 A
        gbs = 1 pS
        gbd = 1 pS
         qg = -1.66785 fCoul
         qd = 4.26405 aCoul
         qs = -1.17946 aCoul
         qb = 1.66477 fCoul
        qjd = 209.307 aCoul
        qjs = 287.29 aCoul
     qgdovl = -2.70092 aCoul
     qgsovl = 2.22313 aCoul
        qgi = -1.66785 fCoul
        qdi = 4.26405 aCoul
        qsi = -1.17946 aCoul
        qbi = 1.66477 fCoul
        ide = 62.268 pA
        ige = -0 A
        ise = -65.2597 pA
        ibe = 2.99162 pA
        idb = 1.18162 pA
        isb = 1.81 pA
        vsb = -1.17162 V
        gmb = 122.446 pS
        vgt = 553.905 mV
       vdss = -48.3444 mV
  vsat_marg = 580.038 mV
  self_gain = 7.84407
       rout = 5.95354 GOhm
       beff = 405.906 pA/V^2
        fug = 369.61 kHz
      rgate = 0 Ohm
     vearly = 370.716 mV

Instance: xinst0.xinst0.xinst3.xinst1.msky130_fd_pr__pfet_01v8 of sky130_fd_pr__pfet_01v8
Model: xinst0.xinst0.xinst0.xinst0.sky130_fd_pr__pfet_01v8__model.71
Primitive: bsim4
          d : V(xinst0.input_d_n) = 44.286 nV
          g : V(vinp) = 350 mV
          s : V(xinst0.tail_d) = 628.383 mV
          b : V(vdd) = 1.8 V
     region = off
      trise = 0 C
      dtemp = 0 C
   reversed = no
        ids = -62.8213 pA
        vgs = -278.383 mV
        vds = -628.383 mV
        vbs = 1.17162 V
        vgd = 350 mV
        vdb = -1.8 V
        vgb = -1.45 V
        vth = -832.288 mV
      vdsat = -48.3444 mV
         gm = 1.31755 nS
        gds = 167.967 pS
       gmbs = 122.446 pS
    betaeff = 328.965 uA/V^2
        cjd = 112.486 aF
        cjs = 137.443 aF
        cgg = 567.339 aF
        cgd = -68.2776 aF
        cgs = -92.1622 aF
        cgb = -406.899 aF
        cdg = -78.2956 aF
        cdd = 69.0614 aF
        cds = 10.1904 aF
        cdb = -956.262e-21 F
        csg = -86.1235 aF
        csd = -1.5582 aF
        css = 89.1139 aF
        csb = -1.4322 aF
        cbg = -402.92 aF
        cbd = 774.366e-21 F
        cbs = -7.14207 aF
        cbb = 409.288 aF
     covlgs = 73.8445 aF/m
     covlgd = 70.097 aF/m
     covlgb = 0 F/m
      cggbo = 423.398 aF
      cgdbo = 1.81943 aF
      cgsbo = -18.3177 aF
      cbgbo = -402.92 aF
      cbdbo = 774.366e-21 F
      cbsbo = -7.14207 aF
      cdgbo = -8.19854 aF
      cddbo = -1.03559 aF
      cdsbo = 10.1904 aF
        ron = 10.0027 GOhm
         id = -62.8313 pA
      ibulk = 20.0001 fA
        pwr = 39.5055 pW
   gmoverid = 20.9729 1/V
       ueff = 7.27877e-03
      rdeff = 0 Ohm
      rseff = 0 Ohm
       rgbd = 0 Ohm
      igidl = -31.2168e-33 A
      igisl = -0 A
       igdt = -0 A
[...]
          max cds = 346.374 aF on xinst0.xinst0.xinst12.xinst0.msky130_fd_pr__nfet_01v8 of sky130_fd_pr__nfet_01v8
          min cds = -79.0788 aF on xinst0.xinst0.xinst12.xinst1.msky130_fd_pr__nfet_01v8 of sky130_fd_pr__nfet_01v8
        min |cds| = 0 F on xinst0.xinst0.xinst0.xinst0.msky130_fd_pr__pfet_01v8 of sky130_fd_pr__pfet_01v8
          max cdb = 0 F on xinst0.xinst0.xinst0.xinst0.msky130_fd_pr__pfet_01v8 of sky130_fd_pr__pfet_01v8
          min cdb = -103.341 aF on xinst0.xinst0.xinst12.xinst0.msky130_fd_pr__nfet_01v8 of sky130_fd_pr__nfet_01v8
          max csg = -64.4892 aF on xinst0.xinst0.xinst0.xinst0.msky130_fd_pr__pfet_01v8 of sky130_fd_pr__pfet_01v8
          min csg = -756.723 aF on xinst0.xinst0.xinst12.xinst1.msky130_fd_pr__nfet_01v8 of sky130_fd_pr__nfet_01v8
          max csd = 346.374 aF on xinst0.xinst0.xinst12.xinst1.msky130_fd_pr__nfet_01v8 of sky130_fd_pr__nfet_01v8
          min csd = -79.0788 aF on xinst0.xinst0.xinst12.xinst0.msky130_fd_pr__nfet_01v8 of sky130_fd_pr__nfet_01v8
        min |csd| = 0 F on xinst0.xinst0.xinst0.xinst0.msky130_fd_pr__pfet_01v8 of sky130_fd_pr__pfet_01v8
          max css = 939.142 aF on xinst0.xinst0.xinst12.xinst0.msky130_fd_pr__nfet_01v8 of sky130_fd_pr__nfet_01v8
          min css = 64.4892 aF on xinst0.xinst0.xinst0.xinst0.msky130_fd_pr__pfet_01v8 of sky130_fd_pr__pfet_01v8
          max csb = 0 F on xinst0.xinst0.xinst0.xinst0.msky130_fd_pr__pfet_01v8 of sky130_fd_pr__pfet_01v8
          min csb = -103.341 aF on xinst0.xinst0.xinst12.xinst1.msky130_fd_pr__nfet_01v8 of sky130_fd_pr__nfet_01v8
          max cbg = 0 F on xinst0.xinst0.xinst0.xinst0.msky130_fd_pr__pfet_01v8 of sky130_fd_pr__pfet_01v8
          min cbg = -528.413 aF on xinst0.xinst0.xinst1.xinst0.msky130_fd_pr__pfet_01v8 of sky130_fd_pr__pfet_01v8
          max cbd = 174.766 aF on xinst0.xinst0.xinst12.xinst0.msky130_fd_pr__nfet_01v8 of sky130_fd_pr__nfet_01v8
          min cbd = -534.525 aF on xinst0.xinst0.xinst12.xinst1.msky130_fd_pr__nfet_01v8 of sky130_fd_pr__nfet_01v8
        min |cbd| = 0 F on xinst0.xinst0.xinst0.xinst0.msky130_fd_pr__pfet_01v8 of sky130_fd_pr__pfet_01v8
          max cbs = 174.766 aF on xinst0.xinst0.xinst12.xinst1.msky130_fd_pr__nfet_01v8 of sky130_fd_pr__nfet_01v8
          min cbs = -534.525 aF on xinst0.xinst0.xinst12.xinst0.msky130_fd_pr__nfet_01v8 of sky130_fd_pr__nfet_01v8
        min |cbs| = 0 F on xinst0.xinst0.xinst0.xinst0.msky130_fd_pr__pfet_01v8 of sky130_fd_pr__pfet_01v8
          max cbb = 543.324 aF on xinst0.xinst0.xinst1.xinst0.msky130_fd_pr__pfet_01v8 of sky130_fd_pr__pfet_01v8
          min cbb = 0 F on xinst0.xinst0.xinst0.xinst0.msky130_fd_pr__pfet_01v8 of sky130_fd_pr__pfet_01v8
       max covlgs = 246.313 aF/m on xinst0.xinst0.xinst9.xinst0.msky130_fd_pr__nfet_01v8 of sky130_fd_pr__nfet_01v8
       min covlgs = 64.4892 aF/m on xinst0.xinst0.xinst0.xinst0.msky130_fd_pr__pfet_01v8 of sky130_fd_pr__pfet_01v8
       max covlgd = 246.313 aF/m on xinst0.xinst0.xinst9.xinst0.msky130_fd_pr__nfet_01v8 of sky130_fd_pr__nfet_01v8
       min covlgd = 64.4892 aF/m on xinst0.xinst0.xinst0.xinst0.msky130_fd_pr__pfet_01v8 of sky130_fd_pr__pfet_01v8
       max covlgb = 13.0242e-21 F/m on xinst0.xinst0.xinst9.xinst0.msky130_fd_pr__nfet_01v8 of sky130_fd_pr__nfet_01v8
       min covlgb = 0 F/m on xinst0.xinst0.xinst0.xinst0.msky130_fd_pr__pfet_01v8 of sky130_fd_pr__pfet_01v8
        max cggbo = 1.02213 fF on xinst0.xinst0.xinst12.xinst0.msky130_fd_pr__nfet_01v8 of sky130_fd_pr__nfet_01v8
        min cggbo = 0 F on xinst0.xinst0.xinst0.xinst0.msky130_fd_pr__pfet_01v8 of sky130_fd_pr__pfet_01v8
        max cgdbo = 1.8296 aF on xinst0.xinst0.xinst1.xinst0.msky130_fd_pr__pfet_01v8 of sky130_fd_pr__pfet_01v8
        min cgdbo = -504.678 aF on xinst0.xinst0.xinst12.xinst0.msky130_fd_pr__nfet_01v8 of sky130_fd_pr__nfet_01v8
      min |cgdbo| = 0 F on xinst0.xinst0.xinst0.xinst0.msky130_fd_pr__pfet_01v8 of sky130_fd_pr__pfet_01v8
        max cgsbo = 6.04089 aF on xinst0.xinst0.xinst9.xinst0.msky130_fd_pr__nfet_01v8 of sky130_fd_pr__nfet_01v8
        min cgsbo = -363.063 aF on xinst0.xinst0.xinst15.xinst0.msky130_fd_pr__nfet_01v8 of sky130_fd_pr__nfet_01v8
      min |cgsbo| = 0 F on xinst0.xinst0.xinst0.xinst0.msky130_fd_pr__pfet_01v8 of sky130_fd_pr__pfet_01v8
        max cbgbo = 0 F on xinst0.xinst0.xinst0.xinst0.msky130_fd_pr__pfet_01v8 of sky130_fd_pr__pfet_01v8
        min cbgbo = -528.413 aF on xinst0.xinst0.xinst1.xinst0.msky130_fd_pr__pfet_01v8 of sky130_fd_pr__pfet_01v8
        max cbdbo = 1.43553 aF on xinst0.xinst0.xinst1.xinst0.msky130_fd_pr__pfet_01v8 of sky130_fd_pr__pfet_01v8
        min cbdbo = -534.525 aF on xinst0.xinst0.xinst12.xinst0.msky130_fd_pr__nfet_01v8 of sky130_fd_pr__nfet_01v8
      min |cbdbo| = 0 F on xinst0.xinst0.xinst0.xinst0.msky130_fd_pr__pfet_01v8 of sky130_fd_pr__pfet_01v8
        max cbsbo = 174.766 aF on xinst0.xinst0.xinst12.xinst0.msky130_fd_pr__nfet_01v8 of sky130_fd_pr__nfet_01v8
        min cbsbo = -16.3462 aF on xinst0.xinst0.xinst1.xinst0.msky130_fd_pr__pfet_01v8 of sky130_fd_pr__pfet_01v8
      min |cbsbo| = 0 F on xinst0.xinst0.xinst0.xinst0.msky130_fd_pr__pfet_01v8 of sky130_fd_pr__pfet_01v8
        max cdgbo = 0 F on xinst0.xinst0.xinst0.xinst0.msky130_fd_pr__pfet_01v8 of sky130_fd_pr__pfet_01v8
        min cdgbo = -510.409 aF on xinst0.xinst0.xinst12.xinst0.msky130_fd_pr__nfet_01v8 of sky130_fd_pr__nfet_01v8
        max cddbo = 692.829 aF on xinst0.xinst0.xinst12.xinst0.msky130_fd_pr__nfet_01v8 of sky130_fd_pr__nfet_01v8
        min cddbo = -1.30571 aF on xinst0.xinst0.xinst1.xinst0.msky130_fd_pr__pfet_01v8 of sky130_fd_pr__pfet_01v8
      min |cddbo| = 0 F on xinst0.xinst0.xinst0.xinst0.msky130_fd_pr__pfet_01v8 of sky130_fd_pr__pfet_01v8
        max cdsbo = 15.8041 aF on xinst0.xinst0.xinst1.xinst0.msky130_fd_pr__pfet_01v8 of sky130_fd_pr__pfet_01v8
        min cdsbo = -79.0788 aF on xinst0.xinst0.xinst12.xinst0.msky130_fd_pr__nfet_01v8 of sky130_fd_pr__nfet_01v8
      min |cdsbo| = 0 F on xinst0.xinst0.xinst0.xinst0.msky130_fd_pr__pfet_01v8 of sky130_fd_pr__pfet_01v8
          max ron = infinity Ohm on xinst0.xinst1.xinst17.xinst1.msky130_fd_pr__nfet_01v8 of sky130_fd_pr__nfet_01v8
          min ron = 660.455 Ohm on xinst0.xinst0.xinst12.xinst0.msky130_fd_pr__nfet_01v8 of sky130_fd_pr__nfet_01v8
           max id = 67.0538 pA on xinst0.xinst0.xinst15.xinst1.msky130_fd_pr__nfet_01v8 of sky130_fd_pr__nfet_01v8
           min id = -67.0538 pA on xinst0.xinst0.xinst15.xinst0.msky130_fd_pr__nfet_01v8 of sky130_fd_pr__nfet_01v8
         min |id| = 0 A on xinst0.xinst0.xinst0.xinst0.msky130_fd_pr__pfet_01v8 of sky130_fd_pr__pfet_01v8
        max ibulk = 20.0001 fA on xinst0.xinst0.xinst3.xinst0.msky130_fd_pr__pfet_01v8 of sky130_fd_pr__pfet_01v8
        min ibulk = -13.3334e-21 A on xinst0.xinst0.xinst15.xinst0.msky130_fd_pr__nfet_01v8 of sky130_fd_pr__nfet_01v8
      min |ibulk| = 0 A on xinst0.xinst0.xinst0.xinst0.msky130_fd_pr__pfet_01v8 of sky130_fd_pr__pfet_01v8
          max pwr = 70.1906 pW on xinst0.xinst0.xinst1.xinst0.msky130_fd_pr__pfet_01v8 of sky130_fd_pr__pfet_01v8
          min pwr = 0 W on xinst0.xinst0.xinst0.xinst0.msky130_fd_pr__pfet_01v8 of sky130_fd_pr__pfet_01v8
     max gmoverid = 33.3942 1/V on xinst0.xinst0.xinst6.xinst0.msky130_fd_pr__pfet_01v8 of sky130_fd_pr__pfet_01v8
     min gmoverid = 0 1/V on xinst0.xinst0.xinst0.xinst0.msky130_fd_pr__pfet_01v8 of sky130_fd_pr__pfet_01v8
         max ueff = 32.9685e-03 on xinst0.xinst0.xinst9.xinst0.msky130_fd_pr__nfet_01v8 of sky130_fd_pr__nfet_01v8
         min ueff = 0 on xinst0.xinst0.xinst0.xinst0.msky130_fd_pr__pfet_01v8 of sky130_fd_pr__pfet_01v8
            rdeff = 0 Ohm (same value for all instances).
            rseff = 0 Ohm (same value for all instances).
             rgbd = 0 Ohm (same value for all instances).
        max igidl = 0 A on xinst0.xinst0.xinst0.xinst0.msky130_fd_pr__pfet_01v8 of sky130_fd_pr__pfet_01v8
        min igidl = -2.98099 fA on xinst0.xinst0.xinst1.xinst1.msky130_fd_pr__pfet_01v8 of sky130_fd_pr__pfet_01v8
        max igisl = 0 A on xinst0.xinst0.xinst0.xinst0.msky130_fd_pr__pfet_01v8 of sky130_fd_pr__pfet_01v8
        min igisl = -2.98099 fA on xinst0.xinst0.xinst1.xinst0.msky130_fd_pr__pfet_01v8 of sky130_fd_pr__pfet_01v8
             igdt = 0 A (same value for all instances).
              igd = 0 A (same value for all instances).
              igs = 0 A (same value for all instances).
              igb = 0 A (same value for all instances).
           igbacc = 0 A (same value for all instances).
           igbinv = 0 A (same value for all instances).
             igcs = 0 A (same value for all instances).
             igcd = 0 A (same value for all instances).
         max isub = 61.2154 aA on xinst0.xinst0.xinst1.xinst0.msky130_fd_pr__pfet_01v8 of sky130_fd_pr__pfet_01v8
         min isub = -0 A on xinst0.xinst0.xinst0.xinst0.msky130_fd_pr__pfet_01v8 of sky130_fd_pr__pfet_01v8
          max gbs = 1.30107 pS on xinst0.xinst0.xinst9.xinst1.msky130_fd_pr__nfet_01v8 of sky130_fd_pr__nfet_01v8
          min gbs = 0 S on xinst0.xinst0.xinst0.xinst0.msky130_fd_pr__pfet_01v8 of sky130_fd_pr__pfet_01v8
          max gbd = 1.30107 pS on xinst0.xinst0.xinst9.xinst0.msky130_fd_pr__nfet_01v8 of sky130_fd_pr__nfet_01v8
          min gbd = 0 S on xinst0.xinst0.xinst0.xinst0.msky130_fd_pr__pfet_01v8 of sky130_fd_pr__pfet_01v8
           max qg = 1.82032 fCoul on xinst0.xinst0.xinst12.xinst0.msky130_fd_pr__nfet_01v8 of sky130_fd_pr__nfet_01v8
           min qg = -1.80524 fCoul on xinst0.xinst0.xinst6.xinst0.msky130_fd_pr__pfet_01v8 of sky130_fd_pr__pfet_01v8
         min |qg| = 0 Coul on xinst0.xinst0.xinst0.xinst0.msky130_fd_pr__pfet_01v8 of sky130_fd_pr__pfet_01v8
           max qd = 4.26405 aCoul on xinst0.xinst0.xinst3.xinst0.msky130_fd_pr__pfet_01v8 of sky130_fd_pr__pfet_01v8
           min qd = -586.029 aCoul on xinst0.xinst0.xinst12.xinst0.msky130_fd_pr__nfet_01v8 of sky130_fd_pr__nfet_01v8
         min |qd| = 0 Coul on xinst0.xinst0.xinst0.xinst0.msky130_fd_pr__pfet_01v8 of sky130_fd_pr__pfet_01v8
           max qs = 4.26405 aCoul on xinst0.xinst0.xinst3.xinst1.msky130_fd_pr__pfet_01v8 of sky130_fd_pr__pfet_01v8
           min qs = -586.029 aCoul on xinst0.xinst0.xinst12.xinst1.msky130_fd_pr__nfet_01v8 of sky130_fd_pr__nfet_01v8
         min |qs| = 0 Coul on xinst0.xinst0.xinst0.xinst0.msky130_fd_pr__pfet_01v8 of sky130_fd_pr__pfet_01v8
           max qb = 1.80473 fCoul on xinst0.xinst0.xinst6.xinst0.msky130_fd_pr__pfet_01v8 of sky130_fd_pr__pfet_01v8
           min qb = -648.266 aCoul on xinst0.xinst0.xinst15.xinst0.msky130_fd_pr__nfet_01v8 of sky130_fd_pr__nfet_01v8
         min |qb| = 0 Coul on xinst0.xinst0.xinst0.xinst0.msky130_fd_pr__pfet_01v8 of sky130_fd_pr__pfet_01v8
          max qjd = 287.29 aCoul on xinst0.xinst0.xinst6.xinst1.msky130_fd_pr__pfet_01v8 of sky130_fd_pr__pfet_01v8
          min qjd = -10.5504e-24 Coul on xinst0.xinst0.xinst15.xinst1.msky130_fd_pr__nfet_01v8 of sky130_fd_pr__nfet_01v8
        min |qjd| = 0 Coul on xinst0.xinst0.xinst0.xinst0.msky130_fd_pr__pfet_01v8 of sky130_fd_pr__pfet_01v8
          max qjs = 287.29 aCoul on xinst0.xinst0.xinst6.xinst0.msky130_fd_pr__pfet_01v8 of sky130_fd_pr__pfet_01v8
          min qjs = -10.5504e-24 Coul on xinst0.xinst0.xinst15.xinst0.msky130_fd_pr__nfet_01v8 of sky130_fd_pr__nfet_01v8
        min |qjs| = 0 Coul on xinst0.xinst0.xinst0.xinst0.msky130_fd_pr__pfet_01v8 of sky130_fd_pr__pfet_01v8
       max qgdovl = 5.65642 aCoul on xinst0.xinst0.xinst1.xinst1.msky130_fd_pr__pfet_01v8 of sky130_fd_pr__pfet_01v8
       min qgdovl = -2.70092 aCoul on xinst0.xinst0.xinst3.xinst0.msky130_fd_pr__pfet_01v8 of sky130_fd_pr__pfet_01v8
     min |qgdovl| = 0 Coul on xinst0.xinst0.xinst0.xinst0.msky130_fd_pr__pfet_01v8 of sky130_fd_pr__pfet_01v8
       max qgsovl = 5.65642 aCoul on xinst0.xinst0.xinst1.xinst0.msky130_fd_pr__pfet_01v8 of sky130_fd_pr__pfet_01v8
       min qgsovl = -2.70092 aCoul on xinst0.xinst0.xinst3.xinst1.msky130_fd_pr__pfet_01v8 of sky130_fd_pr__pfet_01v8
     min |qgsovl| = 0 Coul on xinst0.xinst0.xinst0.xinst0.msky130_fd_pr__pfet_01v8 of sky130_fd_pr__pfet_01v8
          max qgi = 1.82032 fCoul on xinst0.xinst0.xinst12.xinst0.msky130_fd_pr__nfet_01v8 of sky130_fd_pr__nfet_01v8
          min qgi = -1.80524 fCoul on xinst0.xinst0.xinst6.xinst0.msky130_fd_pr__pfet_01v8 of sky130_fd_pr__pfet_01v8
        min |qgi| = 0 Coul on xinst0.xinst0.xinst0.xinst0.msky130_fd_pr__pfet_01v8 of sky130_fd_pr__pfet_01v8
          max qdi = 4.26405 aCoul on xinst0.xinst0.xinst3.xinst0.msky130_fd_pr__pfet_01v8 of sky130_fd_pr__pfet_01v8
          min qdi = -586.029 aCoul on xinst0.xinst0.xinst12.xinst0.msky130_fd_pr__nfet_01v8 of sky130_fd_pr__nfet_01v8
        min |qdi| = 0 Coul on xinst0.xinst0.xinst0.xinst0.msky130_fd_pr__pfet_01v8 of sky130_fd_pr__pfet_01v8
          max qsi = 4.26405 aCoul on xinst0.xinst0.xinst3.xinst1.msky130_fd_pr__pfet_01v8 of sky130_fd_pr__pfet_01v8
          min qsi = -586.029 aCoul on xinst0.xinst0.xinst12.xinst1.msky130_fd_pr__nfet_01v8 of sky130_fd_pr__nfet_01v8
        min |qsi| = 0 Coul on xinst0.xinst0.xinst0.xinst0.msky130_fd_pr__pfet_01v8 of sky130_fd_pr__pfet_01v8
          max qbi = 1.80473 fCoul on xinst0.xinst0.xinst6.xinst0.msky130_fd_pr__pfet_01v8 of sky130_fd_pr__pfet_01v8
          min qbi = -648.266 aCoul on xinst0.xinst0.xinst15.xinst0.msky130_fd_pr__nfet_01v8 of sky130_fd_pr__nfet_01v8
        min |qbi| = 0 Coul on xinst0.xinst0.xinst0.xinst0.msky130_fd_pr__pfet_01v8 of sky130_fd_pr__pfet_01v8
          max ide = 67.0538 pA on xinst0.xinst0.xinst15.xinst1.msky130_fd_pr__nfet_01v8 of sky130_fd_pr__nfet_01v8
          min ide = -67.0538 pA on xinst0.xinst0.xinst15.xinst0.msky130_fd_pr__nfet_01v8 of sky130_fd_pr__nfet_01v8
        min |ide| = 0 A on xinst0.xinst0.xinst0.xinst0.msky130_fd_pr__pfet_01v8 of sky130_fd_pr__pfet_01v8
              ige = 0 A (same value for all instances).
          max ise = 67.0538 pA on xinst0.xinst0.xinst15.xinst0.msky130_fd_pr__nfet_01v8 of sky130_fd_pr__nfet_01v8
          min ise = -67.0538 pA on xinst0.xinst0.xinst15.xinst1.msky130_fd_pr__nfet_01v8 of sky130_fd_pr__nfet_01v8
        min |ise| = 0 A on xinst0.xinst0.xinst0.xinst0.msky130_fd_pr__pfet_01v8 of sky130_fd_pr__pfet_01v8
          max ibe = 3.62 pA on xinst0.xinst0.xinst6.xinst0.msky130_fd_pr__pfet_01v8 of sky130_fd_pr__pfet_01v8
          min ibe = -57.6194e-21 A on xinst0.xinst1.xinst16.xinst0.msky130_fd_pr__nfet_01v8 of sky130_fd_pr__nfet_01v8
        min |ibe| = 0 A on xinst0.xinst0.xinst0.xinst0.msky130_fd_pr__pfet_01v8 of sky130_fd_pr__pfet_01v8
          max idb = 1.81 pA on xinst0.xinst0.xinst6.xinst1.msky130_fd_pr__pfet_01v8 of sky130_fd_pr__pfet_01v8
          min idb = -9.54296e-24 A on xinst0.xinst0.xinst1.xinst0.msky130_fd_pr__pfet_01v8 of sky130_fd_pr__pfet_01v8
        min |idb| = 0 A on xinst0.xinst0.xinst0.xinst0.msky130_fd_pr__pfet_01v8 of sky130_fd_pr__pfet_01v8
          max isb = 1.81 pA on xinst0.xinst0.xinst6.xinst0.msky130_fd_pr__pfet_01v8 of sky130_fd_pr__pfet_01v8
          min isb = -9.54296e-24 A on xinst0.xinst0.xinst1.xinst1.msky130_fd_pr__pfet_01v8 of sky130_fd_pr__pfet_01v8
        min |isb| = 0 A on xinst0.xinst0.xinst0.xinst0.msky130_fd_pr__pfet_01v8 of sky130_fd_pr__pfet_01v8
          max vsb = -0 V on xinst0.xinst0.xinst0.xinst0.msky130_fd_pr__pfet_01v8 of sky130_fd_pr__pfet_01v8
          min vsb = -1.8 V on xinst0.xinst0.xinst6.xinst0.msky130_fd_pr__pfet_01v8 of sky130_fd_pr__pfet_01v8
          max gmb = 417.182 pS on xinst0.xinst0.xinst1.xinst0.msky130_fd_pr__pfet_01v8 of sky130_fd_pr__pfet_01v8
          min gmb = 0 S on xinst0.xinst0.xinst0.xinst0.msky130_fd_pr__pfet_01v8 of sky130_fd_pr__pfet_01v8
          max vgt = 1.029 V on xinst0.xinst0.xinst15.xinst0.msky130_fd_pr__nfet_01v8 of sky130_fd_pr__nfet_01v8
          min vgt = -771.004 mV on xinst0.xinst0.xinst9.xinst0.msky130_fd_pr__nfet_01v8 of sky130_fd_pr__nfet_01v8
        min |vgt| = 0 V on xinst0.xinst0.xinst0.xinst0.msky130_fd_pr__pfet_01v8 of sky130_fd_pr__pfet_01v8
         max vdss = 359.993 mV on xinst0.xinst0.xinst15.xinst0.msky130_fd_pr__nfet_01v8 of sky130_fd_pr__nfet_01v8
         min vdss = -49.2261 mV on xinst0.xinst0.xinst6.xinst0.msky130_fd_pr__pfet_01v8 of sky130_fd_pr__pfet_01v8
       min |vdss| = -0 V on xinst0.xinst0.xinst0.xinst0.msky130_fd_pr__pfet_01v8 of sky130_fd_pr__pfet_01v8
    max vsat_marg = 1.12739 V on xinst0.xinst0.xinst1.xinst0.msky130_fd_pr__pfet_01v8 of sky130_fd_pr__pfet_01v8
    min vsat_marg = -359.993 mV on xinst0.xinst0.xinst12.xinst0.msky130_fd_pr__nfet_01v8 of sky130_fd_pr__nfet_01v8
  min |vsat_marg| = 0 V on xinst0.xinst0.xinst0.xinst0.msky130_fd_pr__pfet_01v8 of sky130_fd_pr__pfet_01v8
    max self_gain = infinity on xinst0.xinst1.xinst17.xinst1.msky130_fd_pr__nfet_01v8 of sky130_fd_pr__nfet_01v8
    min self_gain = 778.373e-12 on xinst0.xinst0.xinst12.xinst0.msky130_fd_pr__nfet_01v8 of sky130_fd_pr__nfet_01v8
         max rout = infinity Ohm on xinst0.xinst1.xinst17.xinst1.msky130_fd_pr__nfet_01v8 of sky130_fd_pr__nfet_01v8
         min rout = 660.455 Ohm on xinst0.xinst0.xinst12.xinst0.msky130_fd_pr__nfet_01v8 of sky130_fd_pr__nfet_01v8
         max beff = 425.407 pA/V^2 on xinst0.xinst0.xinst3.xinst1.msky130_fd_pr__pfet_01v8 of sky130_fd_pr__pfet_01v8
         min beff = 0 A/V^2 on xinst0.xinst0.xinst0.xinst0.msky130_fd_pr__pfet_01v8 of sky130_fd_pr__pfet_01v8
          max fug = 369.61 kHz on xinst0.xinst0.xinst3.xinst0.msky130_fd_pr__pfet_01v8 of sky130_fd_pr__pfet_01v8
          min fug = 0 Hz on xinst0.xinst0.xinst0.xinst0.msky130_fd_pr__pfet_01v8 of sky130_fd_pr__pfet_01v8
            rgate = 0 Ohm (same value for all instances).
       max vearly = infinity V on xinst0.xinst1.xinst17.xinst1.msky130_fd_pr__nfet_01v8 of sky130_fd_pr__nfet_01v8
       min vearly = 1.19542 nV on xinst0.xinst0.xinst12.xinst0.msky130_fd_pr__nfet_01v8 of sky130_fd_pr__nfet_01v8


Instance: xinst5
Model: capacitor
Primitive: capacitor
          1 : V(output_p) = 1.19542 nV
          2 : val(0) = 0 
        cap = 50 pF

Instance: xinst6
Model: capacitor
Primitive: capacitor
          1 : V(output_n) = 1.19542 nV
          2 : val(0) = 0 
        cap = 50 pF

Maximum and minimum parameter values for capacitor: 
              cap = 50 pF (same value for all instances).


Instance: xinst1
Model: vsource
Primitive: vsource
          p : V(vinp) = 350 mV
          n : val(0) = 0 
          v = 350 mV
          i = 0 A
        pwr = 0 W

Instance: xinst2
Model: vsource
Primitive: vsource
          p : V(vinn) = 350 mV
          n : val(0) = 0 
          v = 350 mV
          i = 0 A
        pwr = 0 W

Instance: xinst3
Model: vsource
Primitive: vsource
          p : V(vdd) = 1.8 V
          n : val(0) = 0 
          v = 1.8 V
          i = -550.911 pA
        pwr = -991.641 pW

Instance: xinst4
Model: vsource
Primitive: vsource
          p : V(clk) = 1.8 V
          n : val(0) = 0 
          v = 1.8 V
          i = 0 A
        pwr = 0 W

Maximum and minimum parameter values for vsource: 
            max v = 1.8 V on xinst3
            min v = 350 mV on xinst1
            max i = 0 A on xinst1
            min i = -550.911 pA on xinst3
          max pwr = 0 W on xinst1
          min pwr = -991.641 pW on xinst3


Total Power Dissipation = 991.641 pW.


Convergence achieved in 6 iterations.
DC simulation time: CPU = 18.668 ms, elapsed = 21.8599 ms.
Total time required for dc analysis `dcrun1': CPU = 18.788 ms, elapsed = 21.9791 ms.
Time accumulated: CPU = 2.37944 s, elapsed = 5.45753 s.
Peak resident memory used = 165 Mbytes.


Aggregate audit (3:55:25 PM, Wed Jul 17, 2024):
Time used: CPU = 2.4 s, elapsed = 5.49 s, util. = 43.7%.
Time spent in licensing: elapsed = 74 ms.
Peak memory used = 166 Mbytes.
Simulation started at: 3:55:20 PM, Wed Jul 17, 2024, ended at: 3:55:25 PM, Wed Jul 17, 2024, with elapsed time (wall clock): 5.49 s.
spectre completes with 0 errors, 10 warnings, and 20 notices.
