
Spectre (R) Circuit Simulator
Version 19.1.0.455.isr11 64bit -- 10 Sep 2020
Copyright (C) 1989-2020 Cadence Design Systems, Inc. All rights reserved worldwide. Cadence and Spectre are registered trademarks of Cadence Design Systems, Inc. All others are the property of their respective holders.

Includes RSA BSAFE(R) Cryptographic or Security Protocol Software from RSA Security, Inc.

User: cs199-apt   Host: c111-12.EECS.Berkeley.EDU   HostID: 2080EE28   PID: 3873446
Memory  available: 2.5487 GB  physical: 66.8657 GB
Linux   : Red Hat Enterprise Linux release 8.10 (Ootpa)
CPU Type: 13th Gen Intel(R) Core(TM) i9-13900
        Socket: Processors [Frequency] (Hyperthreaded Processor)
        0:       0 [2000.0] (  1 ),  1 [2000.0] (),  2 [2000.0] (  3 )
                 3 [2000.0] (),  4 [2000.0] (  5 ),  5 [2000.0] (),  6 [2000.0] (  7 )
                 7 [2000.0] (),  8 [2984.8] (  9 ),  9 [2000.0] (), 10 [2000.0] ( 11 )
                11 [2000.0] (), 12 [2000.0] ( 13 ), 13 [2000.0] (), 14 [2000.0] ( 15 )
                15 [2000.0] (), 16 [2000.0] (), 17 [2000.0] (), 18 [3142.9] (), 19 [2000.0] ()
                20 [2000.0] (), 21 [2000.0] (), 22 [2000.0] (), 23 [2000.0] (), 24 [2000.0] ()
                25 [2000.0] (), 26 [2000.0] (), 27 [2000.0] (), 28 [2000.0] (), 29 [2000.0] ()
                30 [2000.0] (), 31 [2000.0] ()
        
System load averages (1min, 5min, 15min) : 2.2 %, 1.7 %, 1.1 %
Hyperthreading is enabled


Simulating `rs_latch' on c111-12.EECS.Berkeley.EDU at 8:33:49 PM, Sat Sep 7, 2024 (process id: 3873446).
Current working directory: /home/aa/users/cs199-apt/cadence/sky130_virtuoso
Command line:
    /share/instsww/cadence/LIBERATE/tools.lnx86/bin/spectre -64  \
        rs_latch

Loading /share/instsww/cadence/LIBERATE/tools.lnx86/cmi/lib/64bit/5.0/libinfineon_sh.so ...
Loading /share/instsww/cadence/LIBERATE/tools.lnx86/cmi/lib/64bit/5.0/libphilips_o_sh.so ...
Loading /share/instsww/cadence/LIBERATE/tools.lnx86/cmi/lib/64bit/5.0/libphilips_sh.so ...
Loading /share/instsww/cadence/LIBERATE/tools.lnx86/cmi/lib/64bit/5.0/libsparam_sh.so ...
Loading /share/instsww/cadence/LIBERATE/tools.lnx86/cmi/lib/64bit/5.0/libstmodels_sh.so ...
Reading file:  /home/aa/users/cs199-apt/cadence/sky130_virtuoso/rs_latch
Reading link:  /share/instsww/cadence/LIBERATE
Reading file:  /share/instsww/cadence/LIBERATE.19.12.294/tools.lnx86/spectre/etc/configs/spectre.cfg
Time for NDB Parsing: CPU = 56.21 ms, elapsed = 229.831 ms.
Time accumulated: CPU = 123.867 ms, elapsed = 229.833 ms.
Peak resident memory used = 87.3 Mbytes.

Time for Elaboration: CPU = 17.063 ms, elapsed = 30.092 ms.
Time accumulated: CPU = 141.088 ms, elapsed = 260.082 ms.
Peak resident memory used = 93.1 Mbytes.


Time for EDB Visiting: CPU = 59 us, elapsed = 60.0815 us.
Time accumulated: CPU = 141.209 ms, elapsed = 260.203 ms.
Peak resident memory used = 95.6 Mbytes.


Error found by spectre during initial setup.
    ERROR (SPECTRE-4080): Cannot run the simulation because no components were found in the current circuit. Ensure that the components are present in the design and rerun the simulation. For information on available components, use 'spectre -h' at the command line.


Aggregate audit (8:33:49 PM, Sat Sep 7, 2024):
Time used: CPU = 141 ms, elapsed = 260 ms, util. = 54.3%.
Time spent in licensing: elapsed = 52.9 ms, percentage of total = 20.3%.
Peak memory used = 95.6 Mbytes.
Simulation started at: 8:33:49 PM, Sat Sep 7, 2024, ended at: 8:33:49 PM, Sat Sep 7, 2024, with elapsed time (wall clock): 260 ms.
spectre completes with 1 error, 0 warnings, and 0 notices.
spectre terminated prematurely due to fatal error.
