
Spectre (R) Circuit Simulator
Version 19.1.0.455.isr11 64bit -- 10 Sep 2020
Copyright (C) 1989-2020 Cadence Design Systems, Inc. All rights reserved worldwide. Cadence and Spectre are registered trademarks of Cadence Design Systems, Inc. All others are the property of their respective holders.

Includes RSA BSAFE(R) Cryptographic or Security Protocol Software from RSA Security, Inc.

User: cs199-apt   Host: eda-3.EECS.Berkeley.EDU   HostID: 2080922A   PID: 4144405
Memory  available: 513.6632 GB  physical: 810.7774 GB
Linux   : Red Hat Enterprise Linux release 8.10 (Ootpa)
CPU Type: AMD EPYC 9454 48-Core Processor
        Socket: Processors [Frequency] (Hyperthreaded Processor)
        0:       0 [1500.0] (),  1 [1500.0] (),  2 [1500.0] (),  3 [1500.0] (),  4 [1499.5] ()
                 5 [1500.0] (),  6 [1500.0] (),  7 [1500.0] (),  8 [1500.0] (),  9 [1763.5] ()
                10 [1500.0] (), 11 [1500.0] (), 12 [1500.0] (), 13 [1500.0] (), 14 [1500.0] ()
                15 [1500.0] (), 16 [1500.0] (), 17 [1500.0] (), 18 [2100.0] (), 19 [1500.0] ()
                20 [1500.0] (), 21 [1500.0] (), 22 [1500.0] (), 23 [1500.0] (), 24 [1500.0] ()
                25 [1500.0] (), 26 [1500.0] (), 27 [1500.0] (), 28 [1500.0] (), 29 [1500.0] ()
                30 [1500.0] (), 31 [1500.0] (), 32 [1500.0] (), 33 [1500.0] (), 34 [1500.0] ()
                35 [1500.0] (), 36 [1500.0] (), 37 [1500.0] (), 38 [1500.0] (), 39 [2100.0] ()
                40 [1500.0] (), 41 [1500.0] (), 42 [1500.0] (), 43 [1500.0] (), 44 [1500.0] ()
                45 [1500.0] (), 46 [1500.0] (), 47 [1500.0] (), 48 [1500.0] (), 49 [1500.0] ()
                50 [1500.0] (), 51 [1500.0] (), 52 [1500.0] (), 53 [1500.0] (), 54 [1500.0] ()
                55 [1500.0] (), 56 [1500.0] (), 57 [1500.0] (), 58 [1500.0] (), 59 [1500.0] ()
                60 [1500.0] (), 61 [1500.0] (), 62 [1500.0] (), 63 [1500.0] (), 64 [1500.0] ()
                65 [2100.0] (), 66 [1500.0] (), 67 [1500.0] (), 68 [1500.0] (), 69 [1500.0] ()
                70 [1500.0] (), 71 [1500.0] (), 72 [1500.0] (), 73 [1500.0] (), 74 [1500.0] ()
                75 [1500.0] (), 76 [1500.0] (), 77 [1500.0] (), 78 [1500.0] (), 79 [1500.0] ()
                80 [1500.0] (), 81 [1500.0] (), 82 [1500.0] (), 83 [1500.0] (), 84 [1500.0] ()
                85 [1500.0] (), 86 [1500.0] (), 87 [1500.0] (), 88 [1500.0] (), 89 [1500.0] ()
                90 [1500.0] (), 91 [1500.0] (), 92 [1500.0] (), 93 [1500.0] (), 94 [1500.0] ()
                95 [1500.0] ()
        
System load averages (1min, 5min, 15min) : 0.2 %, 0.2 %, 0.2 %
Hyperthreading is enabled


Simulating `strong_arm1.scs' on eda-3.EECS.Berkeley.EDU at 2:24:41 AM, Thur Jul 3, 2025 (process id: 4144405).
Current working directory: /home/aa/users/cs199-apt/cadence/sky130_virtuoso
Command line:
    /share/instsww/cadence/LIBERATE/tools.lnx86/bin/spectre -64  \
        strong_arm1.scs

Loading /share/instsww/cadence/LIBERATE/tools.lnx86/cmi/lib/64bit/5.0/libinfineon_sh.so ...
Loading /share/instsww/cadence/LIBERATE/tools.lnx86/cmi/lib/64bit/5.0/libphilips_o_sh.so ...
Loading /share/instsww/cadence/LIBERATE/tools.lnx86/cmi/lib/64bit/5.0/libphilips_sh.so ...
Loading /share/instsww/cadence/LIBERATE/tools.lnx86/cmi/lib/64bit/5.0/libsparam_sh.so ...
Loading /share/instsww/cadence/LIBERATE/tools.lnx86/cmi/lib/64bit/5.0/libstmodels_sh.so ...
Reading file:  /home/aa/users/cs199-apt/cadence/sky130_virtuoso/strong_arm1.scs
Reading link:  /share/instsww/cadence/LIBERATE
Reading file:  /share/instsww/cadence/LIBERATE.19.12.294/tools.lnx86/spectre/etc/configs/spectre.cfg
Reading file:  /home/ff/eecs251b/sky130/sky130_cds/sky130_release_0.0.1/models/sky130.lib.spice
Reading file:  /home/ff/eecs251b/sky130/sky130_cds/sky130_release_0.0.1/cells/nfet_01v8/sky130_fd_pr__nfet_01v8__tt.corner.spice
Reading file:  /home/ff/eecs251b/sky130/sky130_cds/sky130_release_0.0.1/cells/nfet_01v8/sky130_fd_pr__nfet_01v8__tt.pm3.spice
Reading file:  /home/ff/eecs251b/sky130/sky130_cds/sky130_release_0.0.1/cells/nfet_01v8_lvt/sky130_fd_pr__nfet_01v8_lvt__tt.corner.spice
Reading file:  /home/ff/eecs251b/sky130/sky130_cds/sky130_release_0.0.1/cells/nfet_01v8_lvt/sky130_fd_pr__nfet_01v8_lvt__tt.pm3.spice
Reading file:  /home/ff/eecs251b/sky130/sky130_cds/sky130_release_0.0.1/cells/pfet_01v8/sky130_fd_pr__pfet_01v8__tt.corner.spice
Reading file:  /home/ff/eecs251b/sky130/sky130_cds/sky130_release_0.0.1/cells/pfet_01v8/sky130_fd_pr__pfet_01v8__tt.pm3.spice
Reading file:  /home/ff/eecs251b/sky130/sky130_cds/sky130_release_0.0.1/cells/nfet_03v3_nvt/sky130_fd_pr__nfet_03v3_nvt__tt.corner.spice
Reading file:  /home/ff/eecs251b/sky130/sky130_cds/sky130_release_0.0.1/cells/nfet_03v3_nvt/sky130_fd_pr__nfet_03v3_nvt.pm3.spice
Reading file:  /home/ff/eecs251b/sky130/sky130_cds/sky130_release_0.0.1/cells/nfet_05v0_nvt/sky130_fd_pr__nfet_05v0_nvt__tt.corner.spice
Reading file:  /home/ff/eecs251b/sky130/sky130_cds/sky130_release_0.0.1/cells/nfet_05v0_nvt/sky130_fd_pr__nfet_05v0_nvt.pm3.spice
Reading file:  /home/ff/eecs251b/sky130/sky130_cds/sky130_release_0.0.1/cells/esd_nfet_01v8/sky130_fd_pr__esd_nfet_01v8__tt.corner.spice
Reading file:  /home/ff/eecs251b/sky130/sky130_cds/sky130_release_0.0.1/cells/esd_nfet_01v8/sky130_fd_pr__esd_nfet_01v8.pm3.spice
Reading file:  /home/ff/eecs251b/sky130/sky130_cds/sky130_release_0.0.1/cells/pfet_01v8_lvt/sky130_fd_pr__pfet_01v8_lvt__tt.corner.spice
Reading file:  /home/ff/eecs251b/sky130/sky130_cds/sky130_release_0.0.1/cells/pfet_01v8_lvt/sky130_fd_pr__pfet_01v8_lvt__tt.pm3.spice
Reading file:  /home/ff/eecs251b/sky130/sky130_cds/sky130_release_0.0.1/cells/pfet_01v8_hvt/sky130_fd_pr__pfet_01v8_hvt__tt.corner.spice
Reading file:  /home/ff/eecs251b/sky130/sky130_cds/sky130_release_0.0.1/cells/pfet_01v8_hvt/sky130_fd_pr__pfet_01v8_hvt__tt.pm3.spice
Reading file:  /home/ff/eecs251b/sky130/sky130_cds/sky130_release_0.0.1/cells/esd_pfet_g5v0d10v5/sky130_fd_pr__esd_pfet_g5v0d10v5__tt.corner.spice
Reading file:  /home/ff/eecs251b/sky130/sky130_cds/sky130_release_0.0.1/cells/esd_pfet_g5v0d10v5/sky130_fd_pr__esd_pfet_g5v0d10v5.pm3.spice
Reading file:  /home/ff/eecs251b/sky130/sky130_cds/sky130_release_0.0.1/cells/pfet_g5v0d10v5/sky130_fd_pr__pfet_g5v0d10v5__tt.corner.spice
Reading file:  /home/ff/eecs251b/sky130/sky130_cds/sky130_release_0.0.1/cells/pfet_g5v0d10v5/sky130_fd_pr__pfet_g5v0d10v5__tt.pm3.spice
Reading file:  /home/ff/eecs251b/sky130/sky130_cds/sky130_release_0.0.1/cells/pfet_g5v0d16v0/sky130_fd_pr__pfet_g5v0d16v0__tt.corner.spice
Reading file:  /home/ff/eecs251b/sky130/sky130_cds/sky130_release_0.0.1/cells/nfet_g5v0d10v5/sky130_fd_pr__nfet_g5v0d10v5__tt.corner.spice
Reading file:  /home/ff/eecs251b/sky130/sky130_cds/sky130_release_0.0.1/cells/nfet_g5v0d10v5/sky130_fd_pr__nfet_g5v0d10v5__tt.pm3.spice
Reading file:  /home/ff/eecs251b/sky130/sky130_cds/sky130_release_0.0.1/cells/nfet_g5v0d16v0/sky130_fd_pr__nfet_g5v0d16v0__tt_discrete.corner.spice
Reading file:  /home/ff/eecs251b/sky130/sky130_cds/sky130_release_0.0.1/cells/nfet_g5v0d16v0/sky130_fd_pr__nfet_g5v0d16v0__subcircuit.pm3.spice
Reading file:  /home/ff/eecs251b/sky130/sky130_cds/sky130_release_0.0.1/cells/nfet_g5v0d16v0/sky130_fd_pr__nfet_g5v0d16v0.pm3.spice
Reading file:  /home/ff/eecs251b/sky130/sky130_cds/sky130_release_0.0.1/cells/esd_nfet_g5v0d10v5/sky130_fd_pr__esd_nfet_g5v0d10v5__tt.corner.spice
Reading file:  /home/ff/eecs251b/sky130/sky130_cds/sky130_release_0.0.1/cells/esd_nfet_g5v0d10v5/sky130_fd_pr__esd_nfet_g5v0d10v5.pm3.spice
Reading file:  /home/ff/eecs251b/sky130/sky130_cds/sky130_release_0.0.1/models/corners/tt/nonfet.spice
Reading file:  /home/ff/eecs251b/sky130/sky130_cds/sky130_release_0.0.1/cells/nfet_01v8/sky130_fd_pr__nfet_01v8__mismatch.corner.spice
Reading file:  /home/ff/eecs251b/sky130/sky130_cds/sky130_release_0.0.1/cells/pfet_01v8/sky130_fd_pr__pfet_01v8__mismatch.corner.spice
Reading file:  /home/ff/eecs251b/sky130/sky130_cds/sky130_release_0.0.1/cells/nfet_01v8_lvt/sky130_fd_pr__nfet_01v8_lvt__mismatch.corner.spice
Reading file:  /home/ff/eecs251b/sky130/sky130_cds/sky130_release_0.0.1/cells/pfet_01v8_lvt/sky130_fd_pr__pfet_01v8_lvt__mismatch.corner.spice
Reading file:  /home/ff/eecs251b/sky130/sky130_cds/sky130_release_0.0.1/cells/pfet_01v8_hvt/sky130_fd_pr__pfet_01v8_hvt__mismatch.corner.spice
Reading file:  /home/ff/eecs251b/sky130/sky130_cds/sky130_release_0.0.1/cells/nfet_g5v0d10v5/sky130_fd_pr__nfet_g5v0d10v5__mismatch.corner.spice
Reading file:  /home/ff/eecs251b/sky130/sky130_cds/sky130_release_0.0.1/cells/pfet_g5v0d10v5/sky130_fd_pr__pfet_g5v0d10v5__mismatch.corner.spice
Reading file:  /home/ff/eecs251b/sky130/sky130_cds/sky130_release_0.0.1/cells/nfet_05v0_nvt/sky130_fd_pr__nfet_05v0_nvt__mismatch.corner.spice
Reading file:  /home/ff/eecs251b/sky130/sky130_cds/sky130_release_0.0.1/cells/nfet_03v3_nvt/sky130_fd_pr__nfet_03v3_nvt__mismatch.corner.spice
Reading file:  /home/ff/eecs251b/sky130/sky130_cds/sky130_release_0.0.1/models/r+c/res_typical__cap_typical.spice
Reading file:  /home/ff/eecs251b/sky130/sky130_cds/sky130_release_0.0.1/models/sky130_fd_pr__model__r+c.model.spice
Reading file:  /home/ff/eecs251b/sky130/sky130_cds/sky130_release_0.0.1/models/r+c.mrp1monte.spice
Reading file:  /home/ff/eecs251b/sky130/sky130_cds/sky130_release_0.0.1/cells/res_generic_nd/sky130_fd_pr__res_generic_nd.model.spice
Reading file:  /home/ff/eecs251b/sky130/sky130_cds/sky130_release_0.0.1/cells/res_generic_pd/sky130_fd_pr__res_generic_pd.model.spice
Reading file:  /home/ff/eecs251b/sky130/sky130_cds/sky130_release_0.0.1/models/parameters/typical.spice
Reading file:  /home/ff/eecs251b/sky130/sky130_cds/sky130_release_0.0.1/models/r+c/res_typical__cap_typical__lin.spice
Reading file:  /home/ff/eecs251b/sky130/sky130_cds/sky130_release_0.0.1/models/capacitors/sky130_fd_pr__model__cap_vpp.model.spice
Reading file:  /home/ff/eecs251b/sky130/sky130_cds/sky130_release_0.0.1/cells/cap_vpp_08p6x07p8_l1m1m2_noshield/sky130_fd_pr__cap_vpp_08p6x07p8_l1m1m2_noshield.model.spice
Reading file:  /home/ff/eecs251b/sky130/sky130_cds/sky130_release_0.0.1/cells/cap_vpp_04p4x04p6_l1m1m2_noshield/sky130_fd_pr__cap_vpp_04p4x04p6_l1m1m2_noshield.model.spice
Reading file:  /home/ff/eecs251b/sky130/sky130_cds/sky130_release_0.0.1/cells/cap_vpp_11p5x11p7_l1m1m2_noshield/sky130_fd_pr__cap_vpp_11p5x11p7_l1m1m2_noshield.model.spice
Reading file:  /home/ff/eecs251b/sky130/sky130_cds/sky130_release_0.0.1/cells/cap_vpp_01p8x01p8_m1m2_noshield/sky130_fd_pr__cap_vpp_01p8x01p8_m1m2_noshield.model.spice
Reading file:  /home/ff/eecs251b/sky130/sky130_cds/sky130_release_0.0.1/cells/cap_vpp_08p6x07p8_m1m2_shieldl1/sky130_fd_pr__cap_vpp_08p6x07p8_m1m2_shieldl1.model.spice
Reading file:  /home/ff/eecs251b/sky130/sky130_cds/sky130_release_0.0.1/cells/cap_vpp_04p4x04p6_m1m2_shieldl1/sky130_fd_pr__cap_vpp_04p4x04p6_m1m2_shieldl1.model.spice
Reading file:  /home/ff/eecs251b/sky130/sky130_cds/sky130_release_0.0.1/cells/cap_vpp_11p5x11p7_m1m2_shieldl1/sky130_fd_pr__cap_vpp_11p5x11p7_m1m2_shieldl1.model.spice
Reading file:  /home/ff/eecs251b/sky130/sky130_cds/sky130_release_0.0.1/cells/cap_vpp_08p6x07p8_l1m1m2_shieldpo_floatm3/sky130_fd_pr__cap_vpp_08p6x07p8_l1m1m2_shieldpo_floatm3.model.spice
Reading file:  /home/ff/eecs251b/sky130/sky130_cds/sky130_release_0.0.1/cells/cap_vpp_04p4x04p6_l1m1m2_shieldpo_floatm3/sky130_fd_pr__cap_vpp_04p4x04p6_l1m1m2_shieldpo_floatm3.model.spice
Reading file:  /home/ff/eecs251b/sky130/sky130_cds/sky130_release_0.0.1/cells/cap_vpp_11p5x11p7_l1m1m2_shieldpom3/sky130_fd_pr__cap_vpp_11p5x11p7_l1m1m2_shieldpom3.model.spice
Reading file:  /home/ff/eecs251b/sky130/sky130_cds/sky130_release_0.0.1/cells/cap_vpp_03p9x03p9_m1m2_shieldl1_floatm3/sky130_fd_pr__cap_vpp_03p9x03p9_m1m2_shieldl1_floatm3.model.spice
Reading file:  /home/ff/eecs251b/sky130/sky130_cds/sky130_release_0.0.1/cells/cap_vpp_04p4x04p6_l1m1m2_noshield/sky130_fd_pr__cap_vpp_04p4x04p6_l1m1m2_noshield_o1.model.spice
Reading file:  /home/ff/eecs251b/sky130/sky130_cds/sky130_release_0.0.1/cells/cap_vpp_08p6x07p8_m1m2_noshield/sky130_fd_pr__cap_vpp_08p6x07p8_m1m2_noshield.model.spice
Reading file:  /home/ff/eecs251b/sky130/sky130_cds/sky130_release_0.0.1/cells/cap_vpp_04p4x04p6_m1m2_noshield/sky130_fd_pr__cap_vpp_04p4x04p6_m1m2_noshield_o2.model.spice
Reading file:  /home/ff/eecs251b/sky130/sky130_cds/sky130_release_0.0.1/cells/cap_vpp_02p4x04p6_m1m2_noshield/sky130_fd_pr__cap_vpp_02p4x04p6_m1m2_noshield.model.spice
Reading file:  /home/ff/eecs251b/sky130/sky130_cds/sky130_release_0.0.1/cells/cap_vpp_04p4x04p6_m1m2_noshield/sky130_fd_pr__cap_vpp_04p4x04p6_m1m2_noshield.model.spice
Reading file:  /home/ff/eecs251b/sky130/sky130_cds/sky130_release_0.0.1/cells/cap_vpp_11p5x11p7_m1m2_noshield/sky130_fd_pr__cap_vpp_11p5x11p7_m1m2_noshield.model.spice
Reading file:  /home/ff/eecs251b/sky130/sky130_cds/sky130_release_0.0.1/cells/npn_05v5/sky130_fd_pr__npn_05v5__t.corner.spice
Reading file:  /home/ff/eecs251b/sky130/sky130_cds/sky130_release_0.0.1/cells/npn_05v5/sky130_fd_pr__npn_05v5_W1p00L1p00.model.spice
Reading file:  /home/ff/eecs251b/sky130/sky130_cds/sky130_release_0.0.1/cells/npn_05v5/sky130_fd_pr__npn_05v5_W1p00L2p00.model.spice
Reading file:  /home/ff/eecs251b/sky130/sky130_cds/sky130_release_0.0.1/cells/npn_11v0/sky130_fd_pr__npn_11v0_W1p00L1p00.model.spice
Reading file:  /home/ff/eecs251b/sky130/sky130_cds/sky130_release_0.0.1/cells/pnp_05v5/sky130_fd_pr__pnp_05v5_W3p40L3p40.model.spice
Reading file:  /home/ff/eecs251b/sky130/sky130_cds/sky130_release_0.0.1/models/corners/tt/specialized_cells.spice
Reading file:  /home/ff/eecs251b/sky130/sky130_cds/sky130_release_0.0.1/cells/special_nfet_latch/sky130_fd_pr__special_nfet_latch__mismatch.corner.spice
Reading file:  /home/ff/eecs251b/sky130/sky130_cds/sky130_release_0.0.1/cells/special_nfet_pass/sky130_fd_pr__special_nfet_pass__mismatch.corner.spice
Reading file:  /home/ff/eecs251b/sky130/sky130_cds/sky130_release_0.0.1/cells/special_nfet_pass_flash/sky130_fd_pr__special_nfet_pass_flash__mismatch.corner.spice
Reading file:  /home/ff/eecs251b/sky130/sky130_cds/sky130_release_0.0.1/cells/special_pfet_pass/sky130_fd_pr__special_pfet_pass__mismatch.corner.spice
Reading file:  /home/ff/eecs251b/sky130/sky130_cds/sky130_release_0.0.1/cells/special_nfet_pass_lvt/sky130_fd_pr__special_nfet_pass_lvt__tt.corner.spice
Reading file:  /home/ff/eecs251b/sky130/sky130_cds/sky130_release_0.0.1/cells/special_nfet_pass_lvt/sky130_fd_pr__special_nfet_pass_lvt.pm3.spice
Reading file:  /home/ff/eecs251b/sky130/sky130_cds/sky130_release_0.0.1/models/all.spice
Reading file:  /home/ff/eecs251b/sky130/sky130_cds/sky130_release_0.0.1/models/parameters/lod.spice
Reading file:  /home/ff/eecs251b/sky130/sky130_cds/sky130_release_0.0.1/models/parasitics/sky130_fd_pr__model__parasitic__diode_ps2nw.model.spice
Reading file:  /home/ff/eecs251b/sky130/sky130_cds/sky130_release_0.0.1/cells/diode_pw2nd_05v5/sky130_fd_pr__diode_pw2nd_05v5.model.spice
Reading file:  /home/ff/eecs251b/sky130/sky130_cds/sky130_release_0.0.1/cells/diode_pd2nw_05v5/sky130_fd_pr__diode_pd2nw_05v5.model.spice
Reading file:  /home/ff/eecs251b/sky130/sky130_cds/sky130_release_0.0.1/cells/diode_pd2nw_05v5_hvt/sky130_fd_pr__diode_pd2nw_05v5_hvt.model.spice
Reading file:  /home/ff/eecs251b/sky130/sky130_cds/sky130_release_0.0.1/cells/diode_pw2nd_11v0/sky130_fd_pr__diode_pw2nd_11v0.model.spice
Reading file:  /home/ff/eecs251b/sky130/sky130_cds/sky130_release_0.0.1/cells/diode_pd2nw_11v0/sky130_fd_pr__diode_pd2nw_11v0.model.spice
Reading file:  /home/ff/eecs251b/sky130/sky130_cds/sky130_release_0.0.1/cells/diode_pw2nd_05v5_nvt/sky130_fd_pr__diode_pw2nd_05v5_nvt.model.spice
Reading file:  /home/ff/eecs251b/sky130/sky130_cds/sky130_release_0.0.1/cells/diode_pw2nd_05v5_lvt/sky130_fd_pr__diode_pw2nd_05v5_lvt.model.spice
Reading file:  /home/ff/eecs251b/sky130/sky130_cds/sky130_release_0.0.1/cells/diode_pd2nw_05v5_lvt/sky130_fd_pr__diode_pd2nw_05v5_lvt.model.spice
Reading file:  /home/ff/eecs251b/sky130/sky130_cds/sky130_release_0.0.1/models/parasitics/sky130_fd_pr__model__parasitic__diode_pw2dn.model.spice
Reading file:  /home/ff/eecs251b/sky130/sky130_cds/sky130_release_0.0.1/models/parasitics/sky130_fd_pr__model__parasitic__diode_ps2dn.model.spice
Reading file:  /home/ff/eecs251b/sky130/sky130_cds/sky130_release_0.0.1/cells/pfet_g5v0d16v0/sky130_fd_pr__pfet_g5v0d16v0__parasitic__diode_pw2dn.model.spice
Reading file:  /home/ff/eecs251b/sky130/sky130_cds/sky130_release_0.0.1/cells/pnp_05v5/sky130_fd_pr__pnp_05v5_W0p68L0p68.model.spice
Reading file:  /home/ff/eecs251b/sky130/sky130_cds/sky130_release_0.0.1/cells/pfet_g5v0d16v0/sky130_fd_pr__pfet_g5v0d16v0.pm3.spice
Reading file:  /home/ff/eecs251b/sky130/sky130_cds/sky130_release_0.0.1/cells/pfet_g5v0d16v0/sky130_fd_pr__pfet_g5v0d16v0__subcircuit.pm3.spice
Reading file:  /home/ff/eecs251b/sky130/sky130_cds/sky130_release_0.0.1/cells/cap_var_lvt/sky130_fd_pr__cap_var_lvt.model.spice
Reading file:  /home/ff/eecs251b/sky130/sky130_cds/sky130_release_0.0.1/cells/cap_vpp_08p6x07p8_l1m1m2_noshield/sky130_fd_pr__cap_vpp_08p6x07p8_l1m1m2_noshield_o1.model.spice
Reading file:  /home/ff/eecs251b/sky130/sky130_cds/sky130_release_0.0.1/models/capacitors/sky130_fd_pr__model__cap_mim.model.spice
Reading file:  /home/ff/eecs251b/sky130/sky130_cds/sky130_release_0.0.1/cells/cap_mim_m3/sky130_fd_pr__cap_mim_m3_1.model.spice
Reading file:  /home/ff/eecs251b/sky130/sky130_cds/sky130_release_0.0.1/cells/cap_mim_m3/sky130_fd_pr__cap_mim_m3_2.model.spice
Reading file:  /home/ff/eecs251b/sky130/sky130_cds/sky130_release_0.0.1/models/capacitors/sky130_fd_pr__model__cap_vpp_only_mos.model.spice
Reading file:  /home/ff/eecs251b/sky130/sky130_cds/sky130_release_0.0.1/cells/cap_vpp_04p4x04p6_m1m2_noshield/sky130_fd_pr__cap_vpp_04p4x04p6_m1m2_noshield_o1nhv.model.spice
Reading file:  /home/ff/eecs251b/sky130/sky130_cds/sky130_release_0.0.1/cells/cap_vpp_04p4x04p6_m1m2_noshield/sky130_fd_pr__cap_vpp_04p4x04p6_m1m2_noshield_o1phv.model.spice
Reading file:  /home/ff/eecs251b/sky130/sky130_cds/sky130_release_0.0.1/models/sonos_p/begin_of_life/mm.spice
Reading file:  /home/ff/eecs251b/sky130/sky130_cds/sky130_release_0.0.1/models/sonos_e/begin_of_life/mm.spice
Reading file:  /home/ff/eecs251b/sky130/sky130_cds/sky130_release_0.0.1/models/head.spice
Reading file:  /home/ff/eecs251b/sky130/sky130_cds/sky130_release_0.0.1/cells/special_nfet_pass/sky130_fd_pr__special_nfet_pass.pm3.spice
Reading file:  /home/ff/eecs251b/sky130/sky130_cds/sky130_release_0.0.1/cells/special_nfet_latch/sky130_fd_pr__special_nfet_latch.pm3.spice
Reading file:  /home/ff/eecs251b/sky130/sky130_cds/sky130_release_0.0.1/cells/special_pfet_pass/sky130_fd_pr__special_pfet_pass.pm3.spice
Reading file:  /home/ff/eecs251b/sky130/sky130_cds/sky130_release_0.0.1/cells/special_nfet_pass_flash/sky130_fd_pr__special_nfet_pass_flash.pm3.spice
Reading file:  /home/ff/eecs251b/sky130/sky130_cds/sky130_release_0.0.1/models/capacitors/sky130_fd_pr__model__cap_vpp_only_pq.model.spice
Reading file:  /home/ff/eecs251b/sky130/sky130_cds/sky130_release_0.0.1/cells/cap_vpp_08p6x07p8_m1m2m3_shieldl1/sky130_fd_pr__cap_vpp_08p6x07p8_m1m2m3_shieldl1.model.spice
Reading file:  /home/ff/eecs251b/sky130/sky130_cds/sky130_release_0.0.1/cells/cap_vpp_04p4x04p6_m1m2m3_shieldl1/sky130_fd_pr__cap_vpp_04p4x04p6_m1m2m3_shieldl1.model.spice
Reading file:  /home/ff/eecs251b/sky130/sky130_cds/sky130_release_0.0.1/cells/cap_vpp_11p5x11p7_m1m2m3_shieldl1/sky130_fd_pr__cap_vpp_11p5x11p7_m1m2m3_shieldl1.model.spice
Reading file:  /home/ff/eecs251b/sky130/sky130_cds/sky130_release_0.0.1/cells/cap_vpp_11p5x11p7_l1m1m2m3_shieldm4/sky130_fd_pr__cap_vpp_11p5x11p7_l1m1m2m3_shieldm4.model.spice
Reading file:  /home/ff/eecs251b/sky130/sky130_cds/sky130_release_0.0.1/cells/cap_vpp_11p5x11p7_l1m1m2m3_shieldpom4/sky130_fd_pr__cap_vpp_11p5x11p7_l1m1m2m3_shieldpom4.model.spice
Reading file:  /home/ff/eecs251b/sky130/sky130_cds/sky130_release_0.0.1/cells/cap_vpp_06p8x06p1_l1m1m2m3_shieldpom4/sky130_fd_pr__cap_vpp_06p8x06p1_l1m1m2m3_shieldpom4.model.spice
Reading file:  /home/ff/eecs251b/sky130/sky130_cds/sky130_release_0.0.1/cells/cap_vpp_06p8x06p1_m1m2m3_shieldl1m4/sky130_fd_pr__cap_vpp_06p8x06p1_m1m2m3_shieldl1m4.model.spice
Reading file:  /home/ff/eecs251b/sky130/sky130_cds/sky130_release_0.0.1/models/capacitors/sky130_fd_pr__model__cap_vpp_only_p.model.spice
Reading file:  /home/ff/eecs251b/sky130/sky130_cds/sky130_release_0.0.1/cells/cap_vpp_11p5x11p7_l1m1m2m3m4_shieldm5/sky130_fd_pr__cap_vpp_11p5x11p7_l1m1m2m3m4_shieldm5.model.spice
Reading file:  /home/ff/eecs251b/sky130/sky130_cds/sky130_release_0.0.1/cells/cap_vpp_11p5x11p7_l1m1m2m3m4_shieldpom5/sky130_fd_pr__cap_vpp_11p5x11p7_l1m1m2m3m4_shieldpom5.model.spice
Reading file:  /home/ff/eecs251b/sky130/sky130_cds/sky130_release_0.0.1/cells/cap_vpp_11p5x11p7_m1m2m3m4_shieldl1m5/sky130_fd_pr__cap_vpp_11p5x11p7_m1m2m3m4_shieldl1m5.model.spice
Reading file:  /home/ff/eecs251b/sky130/sky130_cds/sky130_release_0.0.1/cells/cap_vpp_11p5x11p7_m1m4_noshield/sky130_fd_pr__cap_vpp_11p5x11p7_m1m4_noshield.model.spice
Reading file:  /home/ff/eecs251b/sky130/sky130_cds/sky130_release_0.0.1/cells/cap_vpp_11p5x11p7_m1m2m3m4_shieldm5/sky130_fd_pr__cap_vpp_11p5x11p7_m1m2m3m4_shieldm5.model.spice
Reading file:  /home/ff/eecs251b/sky130/sky130_cds/sky130_release_0.0.1/cells/cap_vpp_08p6x07p8_m1m2m3_shieldl1m5_floatm4/sky130_fd_pr__cap_vpp_08p6x07p8_m1m2m3_shieldl1m5_floatm4.model.spice
Reading file:  /home/ff/eecs251b/sky130/sky130_cds/sky130_release_0.0.1/cells/cap_vpp_04p4x04p6_m1m2m3_shieldl1m5_floatm4/sky130_fd_pr__cap_vpp_04p4x04p6_m1m2m3_shieldl1m5_floatm4.model.spice
Reading file:  /home/ff/eecs251b/sky130/sky130_cds/sky130_release_0.0.1/cells/cap_vpp_11p5x11p7_m1m2m3_shieldl1m5_floatm4/sky130_fd_pr__cap_vpp_11p5x11p7_m1m2m3_shieldl1m5_floatm4.model.spice
Reading file:  /home/ff/eecs251b/sky130/sky130_cds/sky130_release_0.0.1/cells/cap_vpp_11p3x11p8_l1m1m2m3m4_shieldm5/sky130_fd_pr__cap_vpp_11p3x11p8_l1m1m2m3m4_shieldm5_nhv.model.spice
Reading file:  /home/ff/eecs251b/sky130/sky130_cds/sky130_release_0.0.1/cells/cap_vpp_11p3x11p8_l1m1m2m3m4_shieldm5/sky130_fd_pr__cap_vpp_11p3x11p8_l1m1m2m3m4_shieldm5_nhv__base.model.spice
Reading file:  /home/ff/eecs251b/sky130/sky130_cds/sky130_release_0.0.1/cells/cap_vpp_11p5x11p7_l1m1m2m3m4_shieldpom5/sky130_fd_pr__cap_vpp_11p5x11p7_l1m1m2m3m4_shieldpom5_x.model.spice
Reading file:  /home/ff/eecs251b/sky130/sky130_cds/sky130_release_0.0.1/cells/cap_vpp_02p9x06p1_m1m2m3m4_shieldl1/sky130_fd_pr__cap_vpp_02p9x06p1_m1m2m3m4_shieldl1_fingercap2.model.spice
Reading file:  /home/ff/eecs251b/sky130/sky130_cds/sky130_release_0.0.1/cells/cap_vpp_02p7x11p1_m1m2m3m4_shieldl1/sky130_fd_pr__cap_vpp_02p7x11p1_m1m2m3m4_shieldl1_fingercap.model.spice
Reading file:  /home/ff/eecs251b/sky130/sky130_cds/sky130_release_0.0.1/cells/cap_vpp_02p7x21p1_m1m2m3m4_shieldl1/sky130_fd_pr__cap_vpp_02p7x21p1_m1m2m3m4_shieldl1_fingercap.model.spice
Reading file:  /home/ff/eecs251b/sky130/sky130_cds/sky130_release_0.0.1/cells/cap_vpp_02p7x41p1_m1m2m3m4_shieldl1/sky130_fd_pr__cap_vpp_02p7x41p1_m1m2m3m4_shieldl1_fingercap.model.spice
Reading file:  /home/ff/eecs251b/sky130/sky130_cds/sky130_release_0.0.1/cells/cap_vpp_02p7x06p1_m1m2m3m4_shieldl1/sky130_fd_pr__cap_vpp_02p7x06p1_m1m2m3m4_shieldl1_fingercap.model.spice
Reading file:  /home/ff/eecs251b/sky130/sky130_cds/sky130_release_0.0.1/cells/cap_vpp_11p3x11p3_m1m2m3m4_shieldl1/sky130_fd_pr__cap_vpp_11p3x11p3_m1m2m3m4_shieldl1_wafflecap.model.spice
Reading file:  /home/ff/eecs251b/sky130/sky130_cds/sky130_release_0.0.1/cells/cap_vpp_05p9x05p9_m1m2m3m4_shieldl1/sky130_fd_pr__cap_vpp_05p9x05p9_m1m2m3m4_shieldl1_wafflecap.model.spice
Reading file:  /home/ff/eecs251b/sky130/sky130_cds/sky130_release_0.0.1/cells/cap_vpp_44p7x23p1_pol1m1m2m3m4m5_noshield/sky130_fd_pr__cap_vpp_44p7x23p1_pol1m1m2m3m4m5_noshield.model.spice
Reading file:  /home/ff/eecs251b/sky130/sky130_cds/sky130_release_0.0.1/models/sky130_fd_pr__model__linear.model.spice
Reading file:  /home/ff/eecs251b/sky130/sky130_cds/sky130_release_0.0.1/models/parasitics/sky130_fd_pr__model__parasitic__res_po.model.spice
Reading file:  /home/ff/eecs251b/sky130/sky130_cds/sky130_release_0.0.1/cells/res_xhigh_po/sky130_fd_pr__res_xhigh_po.model.spice
Reading file:  /home/ff/eecs251b/sky130/sky130_cds/sky130_release_0.0.1/cells/res_high_po/sky130_fd_pr__res_high_po.model.spice
Reading file:  /home/ff/eecs251b/sky130/sky130_cds/sky130_release_0.0.1/cells/res_xhigh_po/sky130_fd_pr__res_xhigh_po_0p35.model.spice
Reading file:  /home/ff/eecs251b/sky130/sky130_cds/sky130_release_0.0.1/cells/res_xhigh_po/sky130_fd_pr__res_xhigh_po_0p69.model.spice
Reading file:  /home/ff/eecs251b/sky130/sky130_cds/sky130_release_0.0.1/cells/res_xhigh_po/sky130_fd_pr__res_xhigh_po_1p41.model.spice
Reading file:  /home/ff/eecs251b/sky130/sky130_cds/sky130_release_0.0.1/cells/res_xhigh_po/sky130_fd_pr__res_xhigh_po_2p85.model.spice
Reading file:  /home/ff/eecs251b/sky130/sky130_cds/sky130_release_0.0.1/cells/res_xhigh_po/sky130_fd_pr__res_xhigh_po_5p73.model.spice
Reading file:  /home/ff/eecs251b/sky130/sky130_cds/sky130_release_0.0.1/cells/res_xhigh_po/sky130_fd_pr__res_xhigh_po__base.model.spice
Reading file:  /home/ff/eecs251b/sky130/sky130_cds/sky130_release_0.0.1/cells/res_high_po/sky130_fd_pr__res_high_po_0p35.model.spice
Reading file:  /home/ff/eecs251b/sky130/sky130_cds/sky130_release_0.0.1/cells/res_high_po/sky130_fd_pr__res_high_po_0p69.model.spice
Reading file:  /home/ff/eecs251b/sky130/sky130_cds/sky130_release_0.0.1/cells/res_high_po/sky130_fd_pr__res_high_po_1p41.model.spice
Reading file:  /home/ff/eecs251b/sky130/sky130_cds/sky130_release_0.0.1/cells/res_high_po/sky130_fd_pr__res_high_po_2p85.model.spice
Reading file:  /home/ff/eecs251b/sky130/sky130_cds/sky130_release_0.0.1/cells/res_high_po/sky130_fd_pr__res_high_po_5p73.model.spice
Reading file:  /home/ff/eecs251b/sky130/sky130_cds/sky130_release_0.0.1/cells/rf_nfet_g5v0d10v5/sky130_fd_pr__rf_nfet_g5v0d10v5.pm3.spice
Reading file:  /home/ff/eecs251b/sky130/sky130_cds/sky130_release_0.0.1/cells/rf_nfet_01v8_lvt/sky130_fd_pr__rf_nfet_01v8_lvt.pm3.spice
Reading file:  /home/ff/eecs251b/sky130/sky130_cds/sky130_release_0.0.1/cells/rf_nfet_01v8/sky130_fd_pr__rf_nfet_01v8.pm3.spice
Reading file:  /home/ff/eecs251b/sky130/sky130_cds/sky130_release_0.0.1/cells/rf_pfet_01v8/sky130_fd_pr__rf_pfet_01v8.pm3.spice
Reading file:  /home/ff/eecs251b/sky130/sky130_cds/sky130_release_0.0.1/cells/rf_pfet_01v8_mvt/sky130_fd_pr__rf_pfet_01v8_mvt.pm3.spice
Reading file:  /home/ff/eecs251b/sky130/sky130_cds/sky130_release_0.0.1/models/corners/tt/rf.spice
Reading file:  /home/ff/eecs251b/sky130/sky130_cds/sky130_release_0.0.1/cells/rf_nfet_01v8/sky130_fd_pr__rf_nfet_01v8_b__tt.corner.spice
Reading file:  /home/ff/eecs251b/sky130/sky130_cds/sky130_release_0.0.1/cells/rf_nfet_01v8/sky130_fd_pr__rf_nfet_01v8_b.pm3.spice
Reading file:  /home/ff/eecs251b/sky130/sky130_cds/sky130_release_0.0.1/cells/rf_nfet_01v8_lvt/sky130_fd_pr__rf_nfet_01v8_lvt_b__tt.corner.spice
Reading file:  /home/ff/eecs251b/sky130/sky130_cds/sky130_release_0.0.1/cells/rf_nfet_01v8_lvt/sky130_fd_pr__rf_nfet_01v8_lvt_b.pm3.spice
Reading file:  /home/ff/eecs251b/sky130/sky130_cds/sky130_release_0.0.1/cells/rf_nfet_g5v0d10v5/sky130_fd_pr__rf_nfet_g5v0d10v5_b__tt.corner.spice
Reading file:  /home/ff/eecs251b/sky130/sky130_cds/sky130_release_0.0.1/cells/rf_nfet_g5v0d10v5/sky130_fd_pr__rf_nfet_g5v0d10v5_b.pm3.spice
Reading file:  /home/ff/eecs251b/sky130/sky130_cds/sky130_release_0.0.1/cells/rf_pfet_01v8/sky130_fd_pr__rf_pfet_01v8_b__tt.corner.spice
Reading file:  /home/ff/eecs251b/sky130/sky130_cds/sky130_release_0.0.1/cells/rf_pfet_01v8/sky130_fd_pr__rf_pfet_01v8_b.pm3.spice
Reading file:  /home/ff/eecs251b/sky130/sky130_cds/sky130_release_0.0.1/cells/rf_nfet_01v8/sky130_fd_pr__rf_nfet_01v8__mismatch.corner.spice
Reading file:  /home/ff/eecs251b/sky130/sky130_cds/sky130_release_0.0.1/cells/rf_nfet_01v8_lvt/sky130_fd_pr__rf_nfet_01v8_lvt__mismatch.corner.spice
Reading file:  /home/ff/eecs251b/sky130/sky130_cds/sky130_release_0.0.1/cells/rf_nfet_g5v0d10v5/sky130_fd_pr__rf_nfet_g5v0d10v5__mismatch.corner.spice
Reading file:  /home/ff/eecs251b/sky130/sky130_cds/sky130_release_0.0.1/cells/rf_pfet_01v8/sky130_fd_pr__rf_pfet_01v8__mismatch.corner.spice
Reading file:  /home/ff/eecs251b/sky130/sky130_cds/sky130_release_0.0.1/cells/rf_pfet_01v8_mvt/sky130_fd_pr__rf_pfet_01v8_mvt__tt_discrete.corner.spice
Reading file:  /home/ff/eecs251b/sky130/sky130_cds/sky130_release_0.0.1/cells/pfet_01v8_mvt/sky130_fd_pr__pfet_01v8_mvt.pm3.spice
Reading file:  /home/ff/eecs251b/sky130/sky130_cds/sky130_release_0.0.1/cells/rf_pfet_01v8_mvt/sky130_fd_pr__rf_pfet_01v8_mvt__mismatch.corner.spice
Reading file:  /home/ff/eecs251b/sky130/sky130_cds/sky130_release_0.0.1/cells/pfet_20v0/sky130_fd_pr__pfet_20v0__tt_discrete.corner.spice
Reading file:  /home/ff/eecs251b/sky130/sky130_cds/sky130_release_0.0.1/cells/pfet_20v0/sky130_fd_pr__pfet_20v0__subcircuit.pm3.spice
Reading file:  /home/ff/eecs251b/sky130/sky130_cds/sky130_release_0.0.1/cells/pfet_20v0/sky130_fd_pr__pfet_20v0__parasitic__diode_pw2dn.model.spice
Reading file:  /home/ff/eecs251b/sky130/sky130_cds/sky130_release_0.0.1/cells/nfet_20v0/sky130_fd_pr__nfet_20v0__tt_discrete.corner.spice
Reading file:  /home/ff/eecs251b/sky130/sky130_cds/sky130_release_0.0.1/cells/nfet_20v0/sky130_fd_pr__nfet_20v0__subcircuit.pm3.spice
Reading file:  /home/ff/eecs251b/sky130/sky130_cds/sky130_release_0.0.1/models/parasitics/sky130_fd_pr__model__parasitic__diode_pw2dn__extended_drain.model.spice
Reading file:  /home/ff/eecs251b/sky130/sky130_cds/sky130_release_0.0.1/cells/diode_pw2nd_05v5/sky130_fd_pr__diode_pw2nd_05v5__extended_drain.model.spice
Reading file:  /home/ff/eecs251b/sky130/sky130_cds/sky130_release_0.0.1/cells/nfet_20v0_iso/sky130_fd_pr__nfet_20v0_iso__subcircuit.pm3.spice
Reading file:  /home/ff/eecs251b/sky130/sky130_cds/sky130_release_0.0.1/models/parasitics/sky130_fd_pr__model__parasitic__diode_ps2dn__extended_drain.model.spice
Reading file:  /home/ff/eecs251b/sky130/sky130_cds/sky130_release_0.0.1/cells/nfet_20v0_reverse_iso/sky130_fd_pr__nfet_20v0_reverse_iso__subcircuit.pm3.spice
Reading file:  /home/ff/eecs251b/sky130/sky130_cds/sky130_release_0.0.1/cells/nfet_20v0_zvt/sky130_fd_pr__nfet_20v0_zvt__tt_discrete.corner.spice
Reading file:  /home/ff/eecs251b/sky130/sky130_cds/sky130_release_0.0.1/cells/nfet_20v0_zvt/sky130_fd_pr__nfet_20v0_zvt__subcircuit.pm3.spice
Reading file:  /home/ff/eecs251b/sky130/sky130_cds/sky130_release_0.0.1/cells/nfet_20v0_zvt/sky130_fd_pr__nfet_20v0_zvt__parasitic__diode_ps2dn__extended_drain.model.spice
Reading file:  /home/ff/eecs251b/sky130/sky130_cds/sky130_release_0.0.1/cells/nfet_20v0_nvt/sky130_fd_pr__nfet_20v0_nvt__tt_discrete.corner.spice
Reading file:  /home/ff/eecs251b/sky130/sky130_cds/sky130_release_0.0.1/cells/nfet_20v0_nvt/sky130_fd_pr__nfet_20v0_nvt__subcircuit.pm3.spice
Reading file:  /home/ff/eecs251b/sky130/sky130_cds/sky130_release_0.0.1/cells/nfet_20v0_nvt/sky130_fd_pr__nfet_20v0_nvt__parasitic__diode_ps2dn.model.spice

Warning from spectre in `nmos_tile_w1000_l150_nf2', during circuit read-in.
    WARNING (SFE-676): "strong_arm1.scs" 17: Dubious Spice comment encountered. Spice comments which have white space characters before the asterisk (*) may not be treated as comments in a future release.
Warning from spectre in `pmos_tile_w1000_l150_nf2', during circuit read-in.
    WARNING (SFE-676): "strong_arm1.scs" 24: Dubious Spice comment encountered. Spice comments which have white space characters before the asterisk (*) may not be treated as comments in a future release.
Warning from spectre in `nmos_tile_tail', during circuit read-in.
    WARNING (SFE-676): "strong_arm1.scs" 31: Dubious Spice comment encountered. Spice comments which have white space characters before the asterisk (*) may not be treated as comments in a future release.
Warning from spectre in `nmos_tile_input', during circuit read-in.
    WARNING (SFE-676): "strong_arm1.scs" 38: Dubious Spice comment encountered. Spice comments which have white space characters before the asterisk (*) may not be treated as comments in a future release.
Warning from spectre in `nmos_tile_cross_coupled', during circuit read-in.
    WARNING (SFE-676): "strong_arm1.scs" 45: Dubious Spice comment encountered. Spice comments which have white space characters before the asterisk (*) may not be treated as comments in a future release.
        Further occurrences of this warning will be suppressed.
Warning from spectre during circuit read-in.
    WARNING (SFE-2918): "strong_arm1.scs" 119: Illegal output variable expression: 'isub(xinst3)'. Expected a node of subcircuit.

Time for NDB Parsing: CPU = 475.142 ms, elapsed = 962.629 ms.
Time accumulated: CPU = 540.559 ms, elapsed = 962.637 ms.
Peak resident memory used = 126 Mbytes.

Time for Elaboration: CPU = 33.91 ms, elapsed = 35.7301 ms.
Time accumulated: CPU = 574.624 ms, elapsed = 998.52 ms.
Peak resident memory used = 141 Mbytes.


Notice from spectre in `sky130_fd_pr__nfet_01v8':`xinst0.xinst0.xinst0.xinst0', in `nmos_tile_w1000_l150_nf2':`xinst0.xinst0.xinst0', in `strong_arm_half':`xinst0.xinst0', in `strong_arm':`xinst0', during hierarchy flattening.
    xinst0.xinst0.xinst0.xinst0.msky130_fd_pr__nfet_01v8: Terminals are not distinct.
Notice from spectre in `sky130_fd_pr__nfet_01v8':`xinst0.xinst0.xinst5.xinst0', in `nmos_tile_w1000_l150_nf2':`xinst0.xinst0.xinst5', in `strong_arm_half':`xinst0.xinst0', in `strong_arm':`xinst0', during hierarchy flattening.
    xinst0.xinst0.xinst5.xinst0.msky130_fd_pr__nfet_01v8: Terminals are not distinct.
Notice from spectre in `sky130_fd_pr__nfet_01v8':`xinst0.xinst0.xinst8.xinst0', in `nmos_tile_w1000_l150_nf2':`xinst0.xinst0.xinst8', in `strong_arm_half':`xinst0.xinst0', in `strong_arm':`xinst0', during hierarchy flattening.
    xinst0.xinst0.xinst8.xinst0.msky130_fd_pr__nfet_01v8: Terminals are not distinct.
Notice from spectre in `sky130_fd_pr__pfet_01v8':`xinst0.xinst0.xinst11.xinst0', in `pmos_tile_w1000_l150_nf2':`xinst0.xinst0.xinst11', in `strong_arm_half':`xinst0.xinst0', in `strong_arm':`xinst0', during hierarchy flattening.
    xinst0.xinst0.xinst11.xinst0.msky130_fd_pr__pfet_01v8: Terminals are not distinct.
Notice from spectre in `sky130_fd_pr__pfet_01v8':`xinst0.xinst0.xinst14.xinst0', in `pmos_tile_w1000_l150_nf2':`xinst0.xinst0.xinst14', in `strong_arm_half':`xinst0.xinst0', in `strong_arm':`xinst0', during hierarchy flattening.
    xinst0.xinst0.xinst14.xinst0.msky130_fd_pr__pfet_01v8: Terminals are not distinct.
        Further occurrences of this notice will be suppressed.

Loading /share/instsww/cadence/LIBERATE/tools.lnx86/spectre/lib/64bit/mdl/libSpectreEH_sh.so ...

Time for EDB Visiting: CPU = 31.495 ms, elapsed = 33.3161 ms.
Time accumulated: CPU = 606.223 ms, elapsed = 1.03194 s.
Peak resident memory used = 157 Mbytes.


Warning from spectre during initial setup.
    WARNING (SPECTRE-8281): `1' is not a node nor an instance name.
    WARNING (SPECTRE-8286): Ignoring invalid item `1' in save statement.
Notice from spectre during topology check.
    No connections to node `xinst0.input_d_p'.
    No DC path from node `xinst0.input_d_p' to ground, Gmin installed to provide path.


Global user options:
               temp = 25

Scoped user options:

Circuit inventory:
              nodes 13
              bsim4 40    
            vsource 4     

Analysis and control statement inventory:
               tran 1     

Output statements:
             .probe 1     
           .measure 5     
               save 5     


Notice from spectre.
    7 notices suppressed.
    1 warning suppressed.

Time for parsing: CPU = 1.726 ms, elapsed = 3.77393 ms.
Time accumulated: CPU = 608.027 ms, elapsed = 1.03579 s.
Peak resident memory used = 161 Mbytes.

~~~~~~~~~~~~~~~~~~~~~~
Pre-Simulation Summary
~~~~~~~~~~~~~~~~~~~~~~
~~~~~~~~~~~~~~~~~~~~~~

*******************************************************
Transient Analysis `analysis_0': time = (0 s -> 100 us)
*******************************************************
DC simulation time: CPU = 819 us, elapsed = 823.975 us.

Opening the PSFXL file strong_arm1.raw/analysis_0.tran.tran ...
Important parameter values:
    start = 0 s
    outputstart = 0 s
    stop = 100 us
    step = 100 ns
    maxstep = 2 us
    ic = all
    useprevic = no
    skipdc = no
    reltol = 1e-03
    abstol(V) = 1 uV
    abstol(I) = 1 pA
    temp = 25 C
    tnom = 27 C
    tempeffects = all
    errpreset = moderate
    method = traponly
    lteratio = 3.5
    relref = sigglobal
    cmin = 0 F
    gmin = 1 pS


Output and IC/nodeset summary:
                 probe  1       (current)
                 save   5       (voltage)

...

Notice from spectre at time = 2.50411 us during transient analysis `analysis_0'.
    Found trapezoidal ringing on node xinst0.xinst0.xinst6.xinst0.msky130_fd_pr__nfet_01v8:int_b.
Notice from spectre at time = 2.5062 us during transient analysis `analysis_0'.
    Found trapezoidal ringing on node xinst0.xinst0.xinst6.xinst0.msky130_fd_pr__nfet_01v8:int_b.
Notice from spectre at time = 2.51006 us during transient analysis `analysis_0'.
    Found trapezoidal ringing on node xinst0.xinst1.xinst6.xinst0.msky130_fd_pr__nfet_01v8:int_b.
Notice from spectre at time = 2.51746 us during transient analysis `analysis_0'.
    Found trapezoidal ringing on node xinst0.xinst1.xinst6.xinst0.msky130_fd_pr__nfet_01v8:int_b.
Notice from spectre at time = 2.53162 us during transient analysis `analysis_0'.
    Found trapezoidal ringing on node xinst0.xinst1.xinst6.xinst0.msky130_fd_pr__nfet_01v8:int_b.
        Further occurrences of this notice will be suppressed.

...........9...........8...........7...........6...........5...........4...........3...........2...........1...........0
Number of accepted tran steps =             2786

Notice from spectre during transient analysis `analysis_0'.
    Trapezoidal ringing is detected during tran analysis.
        Please use method=trap for better results and performance.


Maximum value achieved for any signal of each quantity: 
V: V(xinst0.xinst1.intp) = 2.25 V
I: I(xinst3:p) = 4.151 mA
If your circuit contains signals of the same quantity that are vastly different in size (such as high voltage circuitry combined with low voltage control circuitry), you should consider specifying global option `bin_relref=yes'.

~~~~~~~~~~~~~~~~~~~~~~~~~~~~~~~~~
Post-Transient Simulation Summary
~~~~~~~~~~~~~~~~~~~~~~~~~~~~~~~~~
   -   To further speed up simulation, consider
          add ++aps on command line
~~~~~~~~~~~~~~~~~~~~~~~~~~~~~~~~~


During simulation, the CPU load for active processors is :
         0 (5.9 %)       7 (2.5 %)       8 (1.7 %)       9 (1.7 %)
        13 (5.8 %)      14 (2.5 %)      15 (6.7 %)      16 (4.2 %)
        17 (2.5 %)      30 (2.5 %)      31 (1.7 %)      36 (68.1 %)
        37 (4.2 %)      60 (10.9 %)     75 (1.7 %)      76 (2.5 %)
        95 (5.8 %)      
        Total: 140.1%
Initial condition solution time: CPU = 851 us, elapsed = 855.923 us.
Intrinsic tran analysis time:    CPU = 318.549 ms, elapsed = 325.014 ms.
Total time required for tran analysis `analysis_0': CPU = 321.826 ms, elapsed = 333.57 ms.
Time accumulated: CPU = 935.285 ms, elapsed = 1.38238 s.
Peak resident memory used = 165 Mbytes.


Notice from spectre.
    216 notices suppressed.


Aggregate audit (2:24:42 AM, Thur Jul 3, 2025):
Time used: CPU = 957 ms, elapsed = 1.41 s, util. = 68.1%.
Time spent in licensing: elapsed = 38.1 ms.
Peak memory used = 166 Mbytes.
Simulation started at: 2:24:41 AM, Thur Jul 3, 2025, ended at: 2:24:42 AM, Thur Jul 3, 2025, with elapsed time (wall clock): 1.41 s.
spectre completes with 0 errors, 8 warnings, and 17 notices.
