
Spectre (R) Circuit Simulator
Version 19.1.0.455.isr11 64bit -- 10 Sep 2020
Copyright (C) 1989-2020 Cadence Design Systems, Inc. All rights reserved worldwide. Cadence and Spectre are registered trademarks of Cadence Design Systems, Inc. All others are the property of their respective holders.

Includes RSA BSAFE(R) Cryptographic or Security Protocol Software from RSA Security, Inc.

User: cs199-apt   Host: c111-12.EECS.Berkeley.EDU   HostID: 2080EE28   PID: 1473316
Memory  available: 6.6471 GB  physical: 66.8657 GB
Linux   : Red Hat Enterprise Linux release 8.10 (Ootpa)
CPU Type: 13th Gen Intel(R) Core(TM) i9-13900
        Socket: Processors [Frequency] (Hyperthreaded Processor)
        0:       0 [2000.0] (  1 ),  1 [2000.0] (),  2 [2000.0] (  3 )
                 3 [2000.0] (),  4 [2000.0] (  5 ),  5 [2000.0] (),  6 [2000.0] (  7 )
                 7 [2000.0] (),  8 [2155.5] (  9 ),  9 [2000.0] (), 10 [2000.0] ( 11 )
                11 [2000.0] (), 12 [2219.6] ( 13 ), 13 [2000.0] (), 14 [2000.0] ( 15 )
                15 [2000.0] (), 16 [2000.0] (), 17 [2000.0] (), 18 [2000.0] (), 19 [2000.0] ()
                20 [2000.0] (), 21 [2000.0] (), 22 [2000.0] (), 23 [2000.0] (), 24 [2000.0] ()
                25 [2000.0] (), 26 [2000.0] (), 27 [2000.0] (), 28 [2000.0] (), 29 [2000.0] ()
                30 [2000.0] (), 31 [2000.0] ()
        
System load averages (1min, 5min, 15min) : 1.4 %, 1.1 %, 0.6 %
Hyperthreading is enabled


Simulating `rs_latch_tb.scs' on c111-12.EECS.Berkeley.EDU at 10:40:14 AM, Wed Sep 11, 2024 (process id: 1473316).
Current working directory: /home/aa/users/cs199-apt/cadence/sky130_virtuoso/pex30300
Command line:
    /share/instsww/cadence/LIBERATE/tools.lnx86/bin/spectre -64  \
        rs_latch_tb.scs

Loading /share/instsww/cadence/LIBERATE/tools.lnx86/cmi/lib/64bit/5.0/libinfineon_sh.so ...
Loading /share/instsww/cadence/LIBERATE/tools.lnx86/cmi/lib/64bit/5.0/libphilips_o_sh.so ...
Loading /share/instsww/cadence/LIBERATE/tools.lnx86/cmi/lib/64bit/5.0/libphilips_sh.so ...
Loading /share/instsww/cadence/LIBERATE/tools.lnx86/cmi/lib/64bit/5.0/libsparam_sh.so ...
Loading /share/instsww/cadence/LIBERATE/tools.lnx86/cmi/lib/64bit/5.0/libstmodels_sh.so ...

Error found by spectre.
    ERROR (CMI-2011): Unable to open the input file `rs_latch_tb.scs'.
         Ensure that the specified file or directory exists.


Aggregate audit (10:40:14 AM, Wed Sep 11, 2024):
Time used: CPU = 50.7 ms, elapsed = 111 ms, util. = 45.5%.
Time spent in licensing: elapsed = 30.9 ms, percentage of total = 27.7%.
Peak memory used = 83.8 Mbytes.
Simulation started at: 10:40:14 AM, Wed Sep 11, 2024, ended at: 10:40:14 AM, Wed Sep 11, 2024, with elapsed time (wall clock): 111 ms.
spectre completes with 1 error, 0 warnings, and 0 notices.
spectre terminated prematurely due to fatal error.
