
Spectre (R) Circuit Simulator
Version 19.1.0.455.isr11 64bit -- 10 Sep 2020
Copyright (C) 1989-2020 Cadence Design Systems, Inc. All rights reserved worldwide. Cadence and Spectre are registered trademarks of Cadence Design Systems, Inc. All others are the property of their respective holders.

Includes RSA BSAFE(R) Cryptographic or Security Protocol Software from RSA Security, Inc.

User: cs199-apt   Host: c111-12.EECS.Berkeley.EDU   HostID: 2080EE28   PID: 1138496
Memory  available: 6.4651 GB  physical: 66.8657 GB
Linux   : Red Hat Enterprise Linux release 8.10 (Ootpa)
CPU Type: 13th Gen Intel(R) Core(TM) i9-13900
        Socket: Processors [Frequency] (Hyperthreaded Processor)
        0:       0 [2000.0] (  1 ),  1 [2000.0] (),  2 [2000.0] (  3 )
                 3 [2000.0] (),  4 [2000.0] (  5 ),  5 [2000.0] (),  6 [1210.2] (  7 )
                 7 [2000.0] (),  8 [2000.0] (  9 ),  9 [2000.0] (), 10 [2000.0] ( 11 )
                11 [2000.0] (), 12 [2000.0] ( 13 ), 13 [2000.0] (), 14 [2000.0] ( 15 )
                15 [2000.0] (), 16 [2000.0] (), 17 [2000.0] (), 18 [2000.0] (), 19 [2000.0] ()
                20 [2000.0] (), 21 [2000.0] (), 22 [2000.0] (), 23 [2000.0] (), 24 [2000.0] ()
                25 [2000.0] (), 26 [2000.0] (), 27 [2000.0] (), 28 [2000.0] (), 29 [2000.0] ()
                30 [2000.0] (), 31 [2000.0] ()
        
System load averages (1min, 5min, 15min) : 1.2 %, 1.2 %, 0.9 %
Hyperthreading is enabled


Simulating `rs_latch.sp' on c111-12.EECS.Berkeley.EDU at 9:29:16 PM, Tue Sep 10, 2024 (process id: 1138496).
Current working directory: /home/aa/users/cs199-apt/cadence/sky130_virtuoso/pex30300
Command line:
    /share/instsww/cadence/LIBERATE/tools.lnx86/bin/spectre -64  \
        rs_latch.sp

Loading /share/instsww/cadence/LIBERATE/tools.lnx86/cmi/lib/64bit/5.0/libinfineon_sh.so ...
Loading /share/instsww/cadence/LIBERATE/tools.lnx86/cmi/lib/64bit/5.0/libphilips_o_sh.so ...
Loading /share/instsww/cadence/LIBERATE/tools.lnx86/cmi/lib/64bit/5.0/libphilips_sh.so ...
Loading /share/instsww/cadence/LIBERATE/tools.lnx86/cmi/lib/64bit/5.0/libsparam_sh.so ...
Loading /share/instsww/cadence/LIBERATE/tools.lnx86/cmi/lib/64bit/5.0/libstmodels_sh.so ...
Reading file:  /home/aa/users/cs199-apt/cadence/sky130_virtuoso/pex30300/rs_latch.sp
Reading link:  /share/instsww/cadence/LIBERATE
Reading file:  /share/instsww/cadence/LIBERATE.19.12.294/tools.lnx86/spectre/etc/configs/spectre.cfg
Time for NDB Parsing: CPU = 52.897 ms, elapsed = 172.679 ms.
Time accumulated: CPU = 108.874 ms, elapsed = 172.681 ms.
Peak resident memory used = 92.9 Mbytes.

Time for Elaboration: CPU = 9.834 ms, elapsed = 12.1429 ms.
Time accumulated: CPU = 118.757 ms, elapsed = 184.873 ms.
Peak resident memory used = 98.4 Mbytes.


Time for EDB Visiting: CPU = 53 us, elapsed = 52.9289 us.
Time accumulated: CPU = 118.86 ms, elapsed = 184.976 ms.
Peak resident memory used = 98.4 Mbytes.


Error found by spectre during initial setup.
    ERROR (SPECTRE-4080): Cannot run the simulation because no components were found in the current circuit. Ensure that the components are present in the design and rerun the simulation. For information on available components, use 'spectre -h' at the command line.


Aggregate audit (9:29:17 PM, Tue Sep 10, 2024):
Time used: CPU = 119 ms, elapsed = 185 ms, util. = 64.3%.
Time spent in licensing: elapsed = 44.8 ms, percentage of total = 24.2%.
Peak memory used = 101 Mbytes.
Simulation started at: 9:29:16 PM, Tue Sep 10, 2024, ended at: 9:29:17 PM, Tue Sep 10, 2024, with elapsed time (wall clock): 185 ms.
spectre completes with 1 error, 0 warnings, and 0 notices.
spectre terminated prematurely due to fatal error.
